Circuit: * D:\Downloads\VLSI\Report\DIfferentrw.asc

Limiting rise time of source v2 to 5e-10
Limiting fall time of source v2 to 5e-10
Limiting rise time of source v5 to 3e-10
Limiting fall time of source v5 to 3e-10
Limiting rise time of source v6 to 2e-10
Limiting fall time of source v6 to 2e-10
Limiting rise time of source v7 to 2e-10
Limiting fall time of source v7 to 2e-10
WARNING: Node N009 is floating.
WARNING: Node N004 is floating.
WARNING: Node N007 is floating.
WARNING: Node N008 is floating.
WARNING: Node WL is floating.
WARNING: Node N003 is floating.
WARNING: Node N001 is floating.
WARNING: Node N010 is floating.
WARNING: Node N014 is floating.

Model "testn": Oxide thickness thinner than recommended for a level 1 MOSFET.
Instance "m1": Length shorter than recommended for a level 1 MOSFET.
Instance "m3": Length shorter than recommended for a level 1 MOSFET.
Instance "m5": Length shorter than recommended for a level 1 MOSFET.
Instance "m6": Length shorter than recommended for a level 1 MOSFET.
Instance "m7": Length shorter than recommended for a level 1 MOSFET.
Instance "m11": Length shorter than recommended for a level 1 MOSFET.
Instance "m12": Length shorter than recommended for a level 1 MOSFET.
Instance "m10": Length shorter than recommended for a level 1 MOSFET.
Instance "m14": Length shorter than recommended for a level 1 MOSFET.
Instance "m16": Length shorter than recommended for a level 1 MOSFET.
Instance "m17": Length shorter than recommended for a level 1 MOSFET.
Instance "m18": Length shorter than recommended for a level 1 MOSFET.
Instance "m19": Length shorter than recommended for a level 1 MOSFET.
Instance "m20": Length shorter than recommended for a level 1 MOSFET.
Model "testp": Oxide thickness thinner than recommended for a level 1 MOSFET.
Instance "m2": Length shorter than recommended for a level 1 MOSFET.
Instance "m4": Length shorter than recommended for a level 1 MOSFET.
Instance "m8": Length shorter than recommended for a level 1 MOSFET.
Instance "m9": Length shorter than recommended for a level 1 MOSFET.
Instance "m13": Length shorter than recommended for a level 1 MOSFET.
Instance "m15": Length shorter than recommended for a level 1 MOSFET.
Direct Newton iteration failed to find .op point.  (Use ".option noopiter" to skip.)
Starting Gmin stepping
Gmin = 10
Gmin = 1.07374
Gmin = 0.115292
Gmin = 0.0123794
Gmin = 0.00132923
Gmin = 0.000142725
Gmin = 1.5325e-05
Gmin = 1.6455e-06
Gmin = 1.76685e-07
Gmin = 1.89714e-08
Gmin = 2.03704e-09
Gmin = 2.18725e-10
Gmin = 2.34854e-11
Gmin = 2.52173e-12
Gmin = 2.70769e-13
Gmin = 0
Gmin stepping succeeded in finding the operating point.

Changing Tseed to 9.76562e-15
Heightened Def Con from 1.61413e-08 to 1.61535e-08
Heightened Def Con from 1.76e-08 to 1.76042e-08
Heightened Def Con from 1.84e-08 ++++++++++++++++++++++++++++++++++++to 1.8403e-08
Heightened Def Con from 1.8403e-08 +++++++++++++++++++++++++++++to 1.85007e-08
Heightened Def Con from 1.85007e-08 ++++++++++++++++++++++++++++to 1.88913e-08
Heightened Def Con from 1.88913e-08 ++++++++++++++++++++++++++++to 1.91843e-08
Heightened Def Con from 1.91843e-08 ++++++++++++++++++++++++++++to 1.94772e-08
Heightened Def Con from 1.94772e-08 ++++++++++++++++++++++++++++to 1.97702e-08
Heightened Def Con from 1.97702e-08 ++++++++++++++++++++++++++++to 1.98679e-08
Heightened Def Con from 1.98679e-08 ++++++++++++++++++++++++++++to 2e-08
Heightened Def Con from 2.59949e-08 +++++++++++++++++++++++++++++++++++to 2.6e-08
Heightened Def Con from 2.6e-08 +++++++++++++++++++++++++++++to 2.6293e-08
Heightened Def Con from 2.6293e-08 ++++++++++++++++++++++++++++to 2.63906e-08
Heightened Def Con from 2.63906e-08 ++++++++++++++++++++++++++++to 2.64883e-08
Heightened Def Con from 2.64883e-08 ++++++++++++++++++++++++++++to 2.65859e-08
Heightened Def Con from 2.65859e-08 ++++++++++++++++++++++++++++to 2.66836e-08
Heightened Def Con from 2.66836e-08 ++++++++++++++++++++++++++++to 2.67813e-08
Heightened Def Con from 2.67813e-08 ++++++++++++++++++++++++++++to 2.68789e-08
Heightened Def Con from 2.68789e-08 ++++++++++++++++++++++++++++to 2.69766e-08
Heightened Def Con from 2.69766e-08 ++++++++++++++++++++++++++++to 2.70742e-08
Heightened Def Con from 2.70742e-08 ++++++++++++++++++++++++++++to 2.71719e-08
Heightened Def Con from 2.71719e-08 ++++++++++++++++++++++++++++to 2.73e-08
Heightened Def Con from 2.73e-08 ++++++++++++++++++++++++++++to 2.73012e-08
Heightened Def Con from 2.73012e-08 ++++++++++++++++++++++++++++to 2.75943e-08
Heightened Def Con from 2.75943e-08 ++++++++++++++++++++++++++++to 2.75944e-08
Heightened Def Con from 2.75944e-08 ++++++++++++++++++++++++++++to 2.75945e-08
Heightened Def Con from 2.75945e-08 ++++++++++++++++++++++++++++to 2.75945e-08
Heightened Def Con from 2.75945e-08 ++++++++++++++++++++++++++++to 2.75946e-08
Heightened Def Con from 2.75946e-08 ++++++++++++++++++++++++++++to 2.75947e-08
Heightened Def Con from 2.75947e-08 ++++++++++++++++++++++++++++to 2.75948e-08
Heightened Def Con from 2.75948e-08 ++++++++++++++++++++++++++++to 2.75949e-08
Heightened Def Con from 2.75949e-08 ++++++++++++++++++++++++++++to 2.7595e-08
Heightened Def Con from 2.7595e-08 ++++++++++++++++++++++++++++to 2.7595e-08
Heightened Def Con from 2.7595e-08 ++++++++++++++++++++++++++++to 2.75951e-08
Heightened Def Con from 2.75951e-08 ++++++++++++++++++++++++++++to 2.75952e-08
Heightened Def Con from 2.75952e-08 ++++++++++++++++++++++++++++to 2.75953e-08
Heightened Def Con from 2.75953e-08 ++++++++++++++++++++++++++++to 2.75953e-08
Heightened Def Con from 2.75953e-08 ++++++++++++++++++++++++++++to 2.75954e-08
Heightened Def Con from 2.75954e-08 ++++++++++++++++++++++++++++to 2.75955e-08
Heightened Def Con from 2.75955e-08 ++++++++++++++++++++++++++++to 2.75956e-08
Heightened Def Con from 2.75956e-08 ++++++++++++++++++++++++++++to 2.75956e-08
Heightened Def Con from 2.75956e-08 ++++++++++++++++++++++++++++to 2.75962e-08
Heightened Def Con from 2.75962e-08 ++++++++++++++++++++++++++++to 2.75966e-08
Heightened Def Con from 2.75966e-08 ++++++++++++++++++++++++++++to 2.75971e-08
Heightened Def Con from 2.75971e-08 ++++++++++++++++++++++++++++to 2.75974e-08
Heightened Def Con from 2.75974e-08 ++++++++++++++++++++++++++++to 2.75978e-08
Heightened Def Con from 2.75978e-08 ++++++++++++++++++++++++++++to 2.7598e-08
Heightened Def Con from 2.7598e-08 ++++++++++++++++++++++++++++to 2.75983e-08
Heightened Def Con from 2.75983e-08 ++++++++++++++++++++++++++++to 2.75985e-08
Heightened Def Con from 2.75985e-08 ++++++++++++++++++++++++++++to 2.75987e-08
Heightened Def Con from 2.75987e-08 ++++++++++++++++++++++++++++to 2.75988e-08
Heightened Def Con from 2.75988e-08 ++++++++++++++++++++++++++++to 2.7599e-08
Heightened Def Con from 2.7599e-08 ++++++++++++++++++++++++++++to 2.75991e-08
Heightened Def Con from 2.75991e-08 ++++++++++++++++++++++++++++to 2.75992e-08
Heightened Def Con from 2.75992e-08 ++++++++++++++++++++++++++++to 2.75993e-08
Heightened Def Con from 2.75993e-08 ++++++++++++++++++++++++++++to 2.75994e-08
Heightened Def Con from 2.75994e-08 ++++++++++++++++++++++++++++to 2.75995e-08
Heightened Def Con from 2.75995e-08 ++++++++++++++++++++++++++++to 2.76e-08
Heightened Def Con from 2.76e-08 ++++++++++++++++++++++++++++to 2.76002e-08
Heightened Def Con from 2.76002e-08 ++++++++++++++++++++++++++++to 2.78931e-08
Heightened Def Con from 2.78931e-08 ++++++++++++++++++++++++++++to 2.82e-08
Heightened Def Con from 2.82e-08 +++++++++++++++++++++to 2.82293e-08
Heightened Def Con from 2.84e-08 +++++++++++++++++++++++++++++++++++++to 2.84012e-08
Heightened Def Con from 2.84012e-08 +++++++++++++++++++++++++++++to 2.89871e-08
Heightened Def Con from 2.89871e-08 ++++++++++++++++++++++++++++to 2.92801e-08
Heightened Def Con from 2.92801e-08 ++++++++++++++++++++++++++++to 2.93778e-08
Heightened Def Con from 2.93778e-08 ++++++++++++++++++++++++++++to 2.94754e-08
Heightened Def Con from 2.94754e-08 ++++++++++++++++++++++++++++to 2.95731e-08
Heightened Def Con from 2.95731e-08 ++++++++++++++++++++++++++++to 2.96707e-08
Heightened Def Con from 2.96707e-08 ++++++++++++++++++++++++++++to 2.97684e-08
Heightened Def Con from 2.97684e-08 ++++++++++++++++++++++++++++to 2.9866e-08
Heightened Def Con from 2.9866e-08 ++++++++++++++++++++++++++++to 3e-08
Heightened Def Con from 3.01e-08 ++++++++++++++++++++++++++to 3.01002e-08
Heightened Def Con from 3.01002e-08 +++++++++++++++++++++to 3.02e-08
Heightened Def Con from 3.02e-08 +++++++++++++++++++++++++to 3.02208e-08
Heightened Def Con from 3.05828e-08 ++++++++++++++++++to 3.0595e-08
Heightened Def Con from 3.59816e-08 to 3.60195e-08
Heightened Def Con from 3.84e-08 ++++++++++++++++++++++++to 3.84006e-08
Heightened Def Con from 3.84006e-08 ++++++++++++++++++++++++to 3.84008e-08
Heightened Def Con from 3.84008e-08 ++++++++++++++++++++++++to 3.8401e-08
Heightened Def Con from 3.8401e-08 ++++++++++++++++++++++++to 3.84012e-08
Heightened Def Con from 3.84012e-08 ++++++++++++++++++++++++to 3.84014e-08
Heightened Def Con from 3.84014e-08 ++++++++++++++++++++++++to 3.84016e-08
Heightened Def Con from 3.84016e-08 ++++++++++++++++++++++++to 3.84018e-08
Heightened Def Con from 3.84018e-08 ++++++++++++++++++++++++to 3.8402e-08
Heightened Def Con from 3.8402e-08 ++++++++++++++++++++++++to 3.84022e-08
Heightened Def Con from 3.84022e-08 ++++++++++++++++++++++++to 3.84024e-08
Heightened Def Con from 3.84024e-08 ++++++++++++++++++++++++to 3.84026e-08
Heightened Def Con from 3.84026e-08 ++++++++++++++++++++++++to 3.84027e-08
Heightened Def Con from 3.84027e-08 ++++++++++++++++++++++++to 3.84029e-08
Heightened Def Con from 3.84029e-08 ++++++++++++++++++++++++to 3.84031e-08
Heightened Def Con from 3.84031e-08 ++++++++++++++++++++++++to 3.84033e-08
Heightened Def Con from 3.84033e-08 ++++++++++++++++++++++++to 3.84035e-08
Heightened Def Con from 3.84035e-08 ++++++++++++++++++++++++to 3.84037e-08
Heightened Def Con from 3.84037e-08 +++++++++++++++++++++++to 3.84052e-08
Heightened Def Con from 3.84052e-08 +++++++++++++++++++++++to 3.84067e-08
Heightened Def Con from 3.84067e-08 +++++++++++++++++++++++to 3.84083e-08
Heightened Def Con from 3.84083e-08 +++++++++++++++++++++++to 3.84098e-08
Heightened Def Con from 3.84098e-08 +++++++++++++++++++++++to 3.84113e-08
Heightened Def Con from 3.84113e-08 +++++++++++++++++++++++to 3.84129e-08
Heightened Def Con from 3.84129e-08 +++++++++++++++++++++++to 3.84144e-08
Heightened Def Con from 3.84144e-08 +++++++++++++++++++++++to 3.84159e-08
Heightened Def Con from 3.84159e-08 ++++++++++++++++++++to 3.84403e-08
Heightened Def Con from 4.76e-08 to 4.76009e-08
Heightened Def Con from 4.84e-08 +++++++++++++++++++++++++++++++++++++to 4.87933e-08
Heightened Def Con from 4.87933e-08 +++++++++++++++++++++++++++++to 4.90863e-08
Heightened Def Con from 4.90863e-08 ++++++++++++++++++++++++++++to 4.93792e-08
Heightened Def Con from 4.93792e-08 ++++++++++++++++++++++++++++to 4.94769e-08
Heightened Def Con from 4.94769e-08 ++++++++++++++++++++++++++++to 4.95746e-08
Heightened Def Con from 4.95746e-08 ++++++++++++++++++++++++++++to 4.96722e-08
Heightened Def Con from 4.96722e-08 ++++++++++++++++++++++++++++to 4.97699e-08
Heightened Def Con from 4.97699e-08 ++++++++++++++++++++++++++++to 4.98675e-08
Heightened Def Con from 4.98675e-08 ++++++++++++++++++++++++++++to 5e-08
Heightened Def Con from 5.01e-08 ++++++++++++++++++++++++++to 5.01002e-08
Heightened Def Con from 5.01002e-08 ++++++++++++++++++++to 5.02e-08
Heightened Def Con from 5.02e-08 +++++++++++++++++++++++++to 5.02208e-08
Heightened Def Con from 5.0581e-08 ++++++++++++++++++to 5.05932e-08
Heightened Def Con from 5.6e-08 ++++++++++++++++++++++to 5.60003e-08
Heightened Def Con from 5.60003e-08 to 5.60247e-08
Heightened Def Con from 5.84e-08 ++++++++++++++++++++++++to 5.84005e-08
Heightened Def Con from 5.84005e-08 ++++++++++++++++++++++++to 5.84007e-08
Heightened Def Con from 5.84007e-08 ++++++++++++++++++++++++to 5.84008e-08
Heightened Def Con from 5.84008e-08 ++++++++++++++++++++++++to 5.8401e-08
Heightened Def Con from 5.8401e-08 ++++++++++++++++++++++++to 5.84012e-08
Heightened Def Con from 5.84012e-08 ++++++++++++++++++++++++to 5.84014e-08
Heightened Def Con from 5.84014e-08 ++++++++++++++++++++++++to 5.84016e-08
Heightened Def Con from 5.84016e-08 ++++++++++++++++++++++++to 5.84018e-08
Heightened Def Con from 5.84018e-08 ++++++++++++++++++++++++to 5.8402e-08
Heightened Def Con from 5.8402e-08 ++++++++++++++++++++++++to 5.84022e-08
Heightened Def Con from 5.84022e-08 ++++++++++++++++++++++++to 5.84024e-08
Heightened Def Con from 5.84024e-08 ++++++++++++++++++++++++to 5.84026e-08
Heightened Def Con from 5.84026e-08 ++++++++++++++++++++++++to 5.84028e-08
Heightened Def Con from 5.84028e-08 ++++++++++++++++++++++++to 5.84029e-08
Heightened Def Con from 5.84029e-08 ++++++++++++++++++++++++to 5.84031e-08
Heightened Def Con from 5.84031e-08 ++++++++++++++++++++++++to 5.84033e-08
Heightened Def Con from 5.84033e-08 ++++++++++++++++++++++++to 5.84035e-08
Heightened Def Con from 5.84035e-08 ++++++++++++++++++++++++to 5.84037e-08
Heightened Def Con from 5.84037e-08 +++++++++++++++++++++++to 5.84052e-08
Heightened Def Con from 5.84052e-08 +++++++++++++++++++++++to 5.84068e-08
Heightened Def Con from 5.84068e-08 +++++++++++++++++++++++to 5.84083e-08
Heightened Def Con from 5.84083e-08 +++++++++++++++++++++++to 5.84098e-08
Heightened Def Con from 5.84098e-08 +++++++++++++++++++++++to 5.84113e-08
Heightened Def Con from 5.84113e-08 +++++++++++++++++++++++to 5.84129e-08
Heightened Def Con from 5.84129e-08 +++++++++++++++++++++++to 5.84144e-08
Heightened Def Con from 5.84144e-08 ++++++++++++++++++++to 5.84388e-08
Heightened Def Con from 6.76e-08 to 6.76007e-08
Heightened Def Con from 6.84e-08 ++++++++++++++++++++++++++++++++++++++to 6.84012e-08
Heightened Def Con from 6.84012e-08 +++++++++++++++++++++++++++++to 6.88894e-08
Heightened Def Con from 6.88894e-08 ++++++++++++++++++++++++++++to 6.91824e-08
Heightened Def Con from 6.91824e-08 ++++++++++++++++++++++++++++to 6.92801e-08
Heightened Def Con from 6.92801e-08 ++++++++++++++++++++++++++++to 6.93777e-08
Heightened Def Con from 6.93777e-08 ++++++++++++++++++++++++++++to 6.94754e-08
Heightened Def Con from 6.94754e-08 ++++++++++++++++++++++++++++to 6.9573e-08
Heightened Def Con from 6.9573e-08 ++++++++++++++++++++++++++++to 6.96707e-08
Heightened Def Con from 6.96707e-08 ++++++++++++++++++++++++++++to 6.97684e-08
Heightened Def Con from 6.97684e-08 ++++++++++++++++++++++++++++to 6.9866e-08
Heightened Def Con from 6.9866e-08 ++++++++++++++++++++++++++++to 7e-08
Heightened Def Con from 7.01e-08 ++++++++++++++++++++++++++to 7.01002e-08
Heightened Def Con from 7.01002e-08 +++++++++++++++++++++to 7.02e-08
Heightened Def Con from 7.02e-08 +++++++++++++++++++++++++to 7.02208e-08
Heightened Def Con from 7.05659e-08 ++++++++++++++++to 7.05781e-08
Heightened Def Con from 7.50984e-08 to 7.51106e-08
Heightened Def Con from 7.6e-08 ++++++++++++++++++++++to 7.60003e-08
Heightened Def Con from 7.60003e-08 to 7.60248e-08
Heightened Def Con from 7.84e-08 ++++++++++++++++++++++++to 7.84003e-08
Heightened Def Con from 7.84003e-08 ++++++++++++++++++++++++to 7.84005e-08
Heightened Def Con from 7.84005e-08 ++++++++++++++++++++++++to 7.84007e-08
Heightened Def Con from 7.84007e-08 ++++++++++++++++++++++++to 7.84009e-08
Heightened Def Con from 7.84009e-08 ++++++++++++++++++++++++to 7.84011e-08
Heightened Def Con from 7.84011e-08 ++++++++++++++++++++++++to 7.84012e-08
Heightened Def Con from 7.84012e-08 ++++++++++++++++++++++++to 7.84014e-08
Heightened Def Con from 7.84014e-08 ++++++++++++++++++++++++to 7.84016e-08
Heightened Def Con from 7.84016e-08 ++++++++++++++++++++++++to 7.84018e-08
Heightened Def Con from 7.84018e-08 ++++++++++++++++++++++++to 7.8402e-08
Heightened Def Con from 7.8402e-08 ++++++++++++++++++++++++to 7.84022e-08
Heightened Def Con from 7.84022e-08 ++++++++++++++++++++++++to 7.84024e-08
Heightened Def Con from 7.84024e-08 ++++++++++++++++++++++++to 7.84026e-08
Heightened Def Con from 7.84026e-08 ++++++++++++++++++++++++to 7.84028e-08
Heightened Def Con from 7.84028e-08 ++++++++++++++++++++++++to 7.8403e-08
Heightened Def Con from 7.8403e-08 ++++++++++++++++++++++++to 7.84032e-08
Heightened Def Con from 7.84032e-08 ++++++++++++++++++++++++to 7.84033e-08
Heightened Def Con from 7.84033e-08 ++++++++++++++++++++++++to 7.84035e-08
Heightened Def Con from 7.84035e-08 ++++++++++++++++++++++++to 7.84037e-08
Heightened Def Con from 7.84037e-08 ++++++++++++++++++++++++to 7.84039e-08
Heightened Def Con from 7.84039e-08 ++++++++++++++++++++++++to 7.84041e-08
Heightened Def Con from 7.84041e-08 +++++++++++++++++++++++to 7.84056e-08
Heightened Def Con from 7.84056e-08 +++++++++++++++++++++++to 7.84072e-08
Heightened Def Con from 7.84072e-08 +++++++++++++++++++++++to 7.84087e-08
Heightened Def Con from 7.84087e-08 +++++++++++++++++++++++to 7.84102e-08
Heightened Def Con from 7.84102e-08 +++++++++++++++++++++++to 7.84117e-08
Heightened Def Con from 7.84117e-08 +++++++++++++++++++++++to 7.84133e-08
Heightened Def Con from 7.84133e-08 +++++++++++++++++++++++to 7.84148e-08
Heightened Def Con from 7.84148e-08 ++++++++++++++++++++to 7.84392e-08
Heightened Def Con from 8.76e-08 to 8.76023e-08
Heightened Def Con from 8.84e-08 +++++++++++++++++++++++++++++++++++++to 8.84021e-08
Heightened Def Con from 8.84021e-08 +++++++++++++++++++++++++++++to 8.88904e-08
Heightened Def Con from 8.88904e-08 ++++++++++++++++++++++++++++to 8.91834e-08
Heightened Def Con from 8.91834e-08 ++++++++++++++++++++++++++++to 8.9281e-08
Heightened Def Con from 8.9281e-08 ++++++++++++++++++++++++++++to 8.93787e-08
Heightened Def Con from 8.93787e-08 ++++++++++++++++++++++++++++to 8.94763e-08
Heightened Def Con from 8.94763e-08 ++++++++++++++++++++++++++++to 8.9574e-08
Heightened Def Con from 8.9574e-08 ++++++++++++++++++++++++++++to 8.96716e-08
Heightened Def Con from 8.96716e-08 ++++++++++++++++++++++++++++to 8.97693e-08
Heightened Def Con from 8.97693e-08 ++++++++++++++++++++++++++++to 8.9867e-08
Heightened Def Con from 8.9867e-08 ++++++++++++++++++++++++++++to 9e-08
Heightened Def Con from 9.01e-08 ++++++++++++++++++++++++++to 9.01002e-08
Heightened Def Con from 9.01002e-08 +++++++++++++++++++++to 9.02e-08
Heightened Def Con from 9.02e-08 +++++++++++++++++++++++++to 9.02208e-08
Heightened Def Con from 9.05655e-08 ++++++++++++++++to 9.05777e-08
Heightened Def Con from 9.84e-08 ++++++++++++++++++++++++to 9.84002e-08
Heightened Def Con from 9.84002e-08 ++++++++++++++++++++++++to 9.84004e-08
Heightened Def Con from 9.84004e-08 ++++++++++++++++++++++++to 9.84006e-08
Heightened Def Con from 9.84006e-08 ++++++++++++++++++++++++to 9.84008e-08
Heightened Def Con from 9.84008e-08 ++++++++++++++++++++++++to 9.8401e-08
Heightened Def Con from 9.8401e-08 ++++++++++++++++++++++++to 9.84012e-08
Heightened Def Con from 9.84012e-08 ++++++++++++++++++++++++to 9.84014e-08
Heightened Def Con from 9.84014e-08 ++++++++++++++++++++++++to 9.84016e-08
Heightened Def Con from 9.84016e-08 ++++++++++++++++++++++++to 9.84017e-08
Heightened Def Con from 9.84017e-08 ++++++++++++++++++++++++to 9.84019e-08
Heightened Def Con from 9.84019e-08 ++++++++++++++++++++++++to 9.84021e-08
Heightened Def Con from 9.84021e-08 ++++++++++++++++++++++++to 9.84023e-08
Heightened Def Con from 9.84023e-08 ++++++++++++++++++++++++to 9.84025e-08
Heightened Def Con from 9.84025e-08 ++++++++++++++++++++++++to 9.84027e-08
Heightened Def Con from 9.84027e-08 ++++++++++++++++++++++++to 9.84029e-08
Heightened Def Con from 9.84029e-08 ++++++++++++++++++++++++to 9.84031e-08
Heightened Def Con from 9.84031e-08 ++++++++++++++++++++++++to 9.84033e-08
Heightened Def Con from 9.84033e-08 ++++++++++++++++++++++++to 9.84035e-08
Heightened Def Con from 9.84035e-08 ++++++++++++++++++++++++to 9.84037e-08
Heightened Def Con from 9.84037e-08 ++++++++++++++++++++++++to 9.84038e-08
Heightened Def Con from 9.84038e-08 ++++++++++++++++++++++++to 9.8404e-08
Heightened Def Con from 9.8404e-08 +++++++++++++++++++++++to 9.84056e-08
Heightened Def Con from 9.84056e-08 +++++++++++++++++++++++to 9.84071e-08
Heightened Def Con from 9.84071e-08 +++++++++++++++++++++++to 9.84086e-08
Heightened Def Con from 9.84086e-08 +++++++++++++++++++++++to 9.84101e-08
Heightened Def Con from 9.84101e-08 +++++++++++++++++++++++to 9.84117e-08
Heightened Def Con from 9.84117e-08 +++++++++++++++++++++++to 9.84132e-08
Heightened Def Con from 9.84132e-08 +++++++++++++++++++++++to 9.84147e-08
Heightened Def Con from 9.84147e-08 +++++++++++++++++++++++to 9.84162e-08
Heightened Def Con from 9.84162e-08 ++++++++++++++++++++to 9.84407e-08

Date: Sun Oct 22 20:04:42 2023
Total elapsed time: 6.682 seconds.

tnom = 27
temp = 27
method = modified trap
totiter = 733183
traniter = 732691
tranpoints = 68667
accept = 8845
rejected = 65956
matrix size = 30
fillins = 44
solver = Normal
Avg thread counts: 1.0/1.8/1.5/1.0
Matrix Compiler1: 6.08 KB object code size  2.2/1.5/[0.8]
Matrix Compiler2: 3.96 KB object code size  1.1/1.2/[0.6]

