Circuit: * D:\Documents\GitHub\VLSI_LTSPICE_STUFF\Report\Draft2.asc

Limiting rise time of source v3 to 0.001
Limiting rise time of source v4 to 0.001
WARNING: Node NC_01 is floating.
WARNING: Node NC_02 is floating.
WARNING: Node NC_03 is floating.
WARNING: Node NC_04 is floating.
WARNING: Node WL is floating.
WARNING: Node NC_05 is floating.
WARNING: Node NC_06 is floating.
WARNING: Node N008 is floating.
WARNING: Node N003 is floating.
WARNING: Node N009 is floating.
WARNING: Node N004 is floating.
WARNING: Node NC_07 is floating.
WARNING: Node N011 is floating.

WARNING: Less than two connections to node bl_bar.  This node is used by m3.
WARNING: Less than two connections to node bl.  This node is used by m4.
WARNING: Less than two connections to node bl_bar2.  This node is used by m11.
WARNING: Less than two connections to node bl2.  This node is used by m12.
Model "testn": Oxide thickness thinner than recommended for a level 1 MOSFET.
Instance "m9": Length shorter than recommended for a level 1 MOSFET.
Instance "m1": Length shorter than recommended for a level 1 MOSFET.
Instance "m3": Length shorter than recommended for a level 1 MOSFET.
Instance "m4": Length shorter than recommended for a level 1 MOSFET.
Instance "m5": Length shorter than recommended for a level 1 MOSFET.
Instance "m7": Length shorter than recommended for a level 1 MOSFET.
Instance "m11": Length shorter than recommended for a level 1 MOSFET.
Instance "m12": Length shorter than recommended for a level 1 MOSFET.
Instance "m13": Length shorter than recommended for a level 1 MOSFET.
Instance "m14": Length shorter than recommended for a level 1 MOSFET.
Instance "m15": Length shorter than recommended for a level 1 MOSFET.
Instance "m16": Length shorter than recommended for a level 1 MOSFET.
Model "testp": Oxide thickness thinner than recommended for a level 1 MOSFET.
Instance "m10": Length shorter than recommended for a level 1 MOSFET.
Instance "m2": Length shorter than recommended for a level 1 MOSFET.
Instance "m6": Length shorter than recommended for a level 1 MOSFET.
Instance "m8": Length shorter than recommended for a level 1 MOSFET.
Direct Newton iteration for .op point succeeded.
Changing Tseed to 9.76562e-15
Changing Tseed to 9.76562e-17
Changing Tseed to 9.76563e-14
Changing Tseed to 9.76562e-18
Changing Tseed to 9.76562e-13
Changing Tseed to 9.76563e-19
Heightened Def Con from 3.6189e-09 ++++++++to 3.6189e-09
Heightened Def Con from 3.6189e-09 +++++++++to 3.6189e-09
Heightened Def Con from 3.6189e-09 +++++++++++++++++++++++++++++++to 4.10718e-09
Heightened Def Con from 4.10718e-09 ++++++++++++++++++++++++++++to 4.40015e-09
Heightened Def Con from 4.40015e-09 ++++++++++++++++++++++++++++to 4.59546e-09
Heightened Def Con from 4.59546e-09 ++++++++++++++++++++++++++++to 4.79077e-09
Heightened Def Con from 4.79077e-09 ++++++++++++++++++++++++++++to 4.98609e-09
Heightened Def Con from 4.98609e-09 ++++++++++++++++++++++++++++to 5.1814e-09
Heightened Def Con from 5.1814e-09 ++++++++++++++++++++++++++++to 5.37671e-09
Heightened Def Con from 5.37671e-09 ++++++++++++++++++++++++++++to 5.57202e-09
Heightened Def Con from 5.57202e-09 ++++++++++++++++++++++++++++to 5.76734e-09
Heightened Def Con from 5.76734e-09 ++++++++++++++++++++++++++++to 5.96265e-09
Heightened Def Con from 5.96265e-09 ++++++++++++++++++++++++++++to 6.15796e-09
Heightened Def Con from 6.15796e-09 ++++++++++++++++++++++++++++to 6.35327e-09
Heightened Def Con from 6.35327e-09 ++++++++++++++++++++++++++++to 6.54859e-09
Heightened Def Con from 6.54859e-09 ++++++++++++++++++++++++++++to 6.7439e-09
Heightened Def Con from 6.7439e-09 ++++++++++++++++++++++++++++to 6.93921e-09
Heightened Def Con from 6.93921e-09 ++++++++++++++++++++++++++++to 7.13452e-09
Heightened Def Con from 7.13452e-09 ++++++++++++++++++++++++++++to 7.32984e-09
Heightened Def Con from 7.32984e-09 ++++++++++++++++++++++++++++to 7.52515e-09
Heightened Def Con from 7.52515e-09 ++++++++++++++++++++++++++++to 7.72046e-09
Heightened Def Con from 7.72046e-09 ++++++++++++++++++++++++++++to 7.91577e-09
Heightened Def Con from 7.91577e-09 ++++++++++++++++++++++++++++to 8.11109e-09
Heightened Def Con from 8.11109e-09 ++++++++++++++++++++++++++++to 8.20874e-09
Heightened Def Con from 8.20874e-09 ++++++++++++++++++++++++++++to 8.3064e-09
Heightened Def Con from 8.3064e-09 ++++++++++++++++++++++++++++to 8.40406e-09
Heightened Def Con from 8.40406e-09 ++++++++++++++++++++++++++++to 8.50171e-09
Heightened Def Con from 8.50171e-09 ++++++++++++++++++++++++++++to 8.59937e-09
Heightened Def Con from 8.59937e-09 ++++++++++++++++++++++++++++to 8.69702e-09
Heightened Def Con from 8.69702e-09 ++++++++++++++++++++++++++++to 8.79468e-09
Heightened Def Con from 8.79468e-09 ++++++++++++++++++++++++++++to 8.89234e-09
Heightened Def Con from 8.89234e-09 ++++++++++++++++++++++++++++to 8.98999e-09
Heightened Def Con from 8.98999e-09 ++++++++++++++++++++++++++++to 9.08765e-09
Heightened Def Con from 9.08765e-09 ++++++++++++++++++++++++++++to 9.18531e-09
Heightened Def Con from 9.18531e-09 ++++++++++++++++++++++++++++to 9.28296e-09
Heightened Def Con from 9.28296e-09 ++++++++++++++++++++++++++++to 9.38062e-09
Heightened Def Con from 9.38062e-09 ++++++++++++++++++++++++++++to 9.47827e-09
Heightened Def Con from 9.47827e-09 ++++++++++++++++++++++++++++to 9.57593e-09
Heightened Def Con from 9.57593e-09 ++++++++++++++++++++++++++++to 9.67359e-09
Heightened Def Con from 9.67359e-09 ++++++++++++++++++++++++++++to 9.77124e-09
Heightened Def Con from 9.77124e-09 ++++++++++++++++++++++++++++to 9.8689e-09
Heightened Def Con from 9.8689e-09 ++++++++++++++++++++++++++++to 1e-08
Heightened Def Con from 1e-08 ++++++++++++++++++++++++++++++++to 1.00098e-08
Heightened Def Con from 1.00098e-08 ++++++++++++++++++++++++++++to 1.03028e-08
Heightened Def Con from 1.03028e-08 ++++++++++++++++++++++++++++to 1.04981e-08
Heightened Def Con from 1.04981e-08 ++++++++++++++++++++++++++++to 1.06934e-08
Heightened Def Con from 1.06934e-08 ++++++++++++++++++++++++++++to 1.08887e-08
Heightened Def Con from 1.08887e-08 ++++++++++++++++++++++++++++to 1.1084e-08
Heightened Def Con from 1.1084e-08 ++++++++++++++++++++++++++++to 1.11817e-08
Heightened Def Con from 1.11817e-08 ++++++++++++++++++++++++++++to 1.12793e-08
Heightened Def Con from 1.12793e-08 ++++++++++++++++++++++++++++to 1.1377e-08
Heightened Def Con from 1.1377e-08 ++++++++++++++++++++++++++++to 1.14746e-08
Heightened Def Con from 1.14746e-08 ++++++++++++++++++++++++++++to 1.15723e-08
Heightened Def Con from 1.15723e-08 ++++++++++++++++++++++++++++to 1.16699e-08
Heightened Def Con from 1.16699e-08 ++++++++++++++++++++++++++++to 1.17676e-08
Heightened Def Con from 1.17676e-08 ++++++++++++++++++++++++++++to 1.18653e-08
Heightened Def Con from 1.18653e-08 ++++++++++++++++++++++++++++to 1.19629e-08
Heightened Def Con from 1.19629e-08 ++++++++++++++++++++++++++++to 1.20606e-08
Heightened Def Con from 1.20606e-08 ++++++++++++++++++++++++++++to 1.21582e-08
Heightened Def Con from 1.21582e-08 ++++++++++++++++++++++++++++to 1.22559e-08
Heightened Def Con from 1.22559e-08 ++++++++++++++++++++++++++++to 1.23535e-08
Heightened Def Con from 1.23535e-08 ++++++++++++++++++++++++++++to 1.24512e-08
Heightened Def Con from 1.24512e-08 ++++++++++++++++++++++++++++to 1.25488e-08
Heightened Def Con from 1.25488e-08 ++++++++++++++++++++++++++++to 1.26465e-08
Heightened Def Con from 1.26465e-08 ++++++++++++++++++++++++++++to 1.27442e-08
Heightened Def Con from 1.27442e-08 ++++++++++++++++++++++++++++to 1.28418e-08
Heightened Def Con from 1.28418e-08 ++++++++++++++++++++++++++++to 1.29395e-08
Heightened Def Con from 1.29395e-08 ++++++++++++++++++++++++++++to 1.30371e-08
Heightened Def Con from 1.30371e-08 ++++++++++++++++++++++++++++to 1.31348e-08
Heightened Def Con from 1.31348e-08 ++++++++++++++++++++++++++++to 1.32324e-08
Heightened Def Con from 1.32324e-08 ++++++++++++++++++++++++++++to 1.33301e-08
Heightened Def Con from 1.33301e-08 ++++++++++++++++++++++++++++to 1.34278e-08
Heightened Def Con from 1.34278e-08 ++++++++++++++++++++++++++++to 1.35254e-08
Heightened Def Con from 1.35254e-08 ++++++++++++++++++++++++++++to 1.36231e-08
Heightened Def Con from 1.36231e-08 ++++++++++++++++++++++++++++to 1.37207e-08
Heightened Def Con from 1.37207e-08 ++++++++++++++++++++++++++++to 1.38184e-08
Heightened Def Con from 1.38184e-08 ++++++++++++++++++++++++++++to 1.3916e-08
Heightened Def Con from 1.3916e-08 ++++++++++++++++++++++++++++to 1.40137e-08
Heightened Def Con from 1.40137e-08 ++++++++++++++++++++++++++++to 1.41113e-08
Heightened Def Con from 1.41113e-08 ++++++++++++++++++++++++++++to 1.4209e-08
Heightened Def Con from 1.4209e-08 ++++++++++++++++++++++++++++to 1.43067e-08
Heightened Def Con from 1.43067e-08 +++++++++++++++++++++++++++to 1.45996e-08
Heightened Def Con from 1.45996e-08 +++++++++++++++++++++++++++to 1.47949e-08
Heightened Def Con from 1.47949e-08 +++++++++++++++++++++++++++to 1.48926e-08
Heightened Def Con from 1.48926e-08 +++++++++++++++++++++++++++to 1.49903e-08
Heightened Def Con from 1.49903e-08 +++++++++++++++++++++++++++to 1.50879e-08
Heightened Def Con from 1.50879e-08 +++++++++++++++++++++++++++to 1.51856e-08
Heightened Def Con from 1.51856e-08 +++++++++++++++++++++++++++to 1.52832e-08
Heightened Def Con from 1.52832e-08 +++++++++++++++++++++++++++to 1.53809e-08
Heightened Def Con from 1.53809e-08 +++++++++++++++++++++++++++to 1.54785e-08
Heightened Def Con from 1.54785e-08 +++++++++++++++++++++++++++to 1.55762e-08
Heightened Def Con from 1.55762e-08 +++++++++++++++++++++++++++to 1.56738e-08
Heightened Def Con from 1.56738e-08 +++++++++++++++++++++++++++to 1.57715e-08
Heightened Def Con from 1.57715e-08 +++++++++++++++++++++++++++to 1.58692e-08
Heightened Def Con from 1.58692e-08 +++++++++++++++++++++++++++to 1.59668e-08
Heightened Def Con from 1.59668e-08 +++++++++++++++++++++++++++to 1.60645e-08
Heightened Def Con from 1.60645e-08 +++++++++++++++++++++++++++to 1.61621e-08
Heightened Def Con from 1.61621e-08 +++++++++++++++++++++++++++to 1.62598e-08
Heightened Def Con from 1.62598e-08 +++++++++++++++++++++++++++to 1.63574e-08
Heightened Def Con from 1.63574e-08 +++++++++++++++++++++++++++to 1.64551e-08
Heightened Def Con from 1.64551e-08 +++++++++++++++++++++++++++to 1.65528e-08
Heightened Def Con from 1.65528e-08 +++++++++++++++++++++++++++to 1.66504e-08
Heightened Def Con from 1.66504e-08 +++++++++++++++++++++++++++to 1.67481e-08
Heightened Def Con from 1.67481e-08 +++++++++++++++++++++++++++to 1.68457e-08
Heightened Def Con from 1.68457e-08 +++++++++++++++++++++++++++to 1.69434e-08
Heightened Def Con from 1.69434e-08 +++++++++++++++++++++++++++to 1.7041e-08
Heightened Def Con from 1.7041e-08 +++++++++++++++++++++++++++to 1.71387e-08
Heightened Def Con from 1.71387e-08 +++++++++++++++++++++++++++to 1.72363e-08
Heightened Def Con from 1.72363e-08 +++++++++++++++++++++++++++to 1.7334e-08
Heightened Def Con from 1.7334e-08 +++++++++++++++++++++++++++to 1.74317e-08
Heightened Def Con from 1.74317e-08 +++++++++++++++++++++++++++to 1.75293e-08
Heightened Def Con from 1.75293e-08 +++++++++++++++++++++++++++to 1.7627e-08
Heightened Def Con from 1.7627e-08 +++++++++++++++++++++++++++to 1.77246e-08
Heightened Def Con from 1.77246e-08 +++++++++++++++++++++++++++to 1.78223e-08
Heightened Def Con from 1.78223e-08 +++++++++++++++++++++++++++to 1.79199e-08
Heightened Def Con from 1.79199e-08 +++++++++++++++++++++++++++to 1.80176e-08
Heightened Def Con from 1.80176e-08 +++++++++++++++++++++++++++to 1.81153e-08
Heightened Def Con from 1.81153e-08 +++++++++++++++++++++++++++to 1.82129e-08
Heightened Def Con from 1.82129e-08 +++++++++++++++++++++++++++to 1.83106e-08
Heightened Def Con from 1.83106e-08 +++++++++++++++++++++++++++to 1.84082e-08
Heightened Def Con from 1.84082e-08 +++++++++++++++++++++++++++to 1.85059e-08
Heightened Def Con from 1.85059e-08 +++++++++++++++++++++++++++to 1.86035e-08
Heightened Def Con from 1.86035e-08 +++++++++++++++++++++++++++to 1.87012e-08
Heightened Def Con from 1.87012e-08 +++++++++++++++++++++++++++to 1.87988e-08
Heightened Def Con from 1.87988e-08 +++++++++++++++++++++++++++to 1.88965e-08
Heightened Def Con from 1.88965e-08 +++++++++++++++++++++++++++to 1.89942e-08
Heightened Def Con from 1.89942e-08 +++++++++++++++++++++++++++to 1.90918e-08
Heightened Def Con from 1.90918e-08 +++++++++++++++++++++++++++to 1.91895e-08
Heightened Def Con from 1.91895e-08 +++++++++++++++++++++++++++to 1.92871e-08
Heightened Def Con from 1.92871e-08 +++++++++++++++++++++++++++to 1.93848e-08
Heightened Def Con from 1.93848e-08 +++++++++++++++++++++++++++to 1.94824e-08
Heightened Def Con from 1.94824e-08 +++++++++++++++++++++++++++to 1.95801e-08
Heightened Def Con from 1.95801e-08 +++++++++++++++++++++++++++to 1.96778e-08
Heightened Def Con from 1.96778e-08 +++++++++++++++++++++++++++to 1.97754e-08
Heightened Def Con from 1.97754e-08 +++++++++++++++++++++++++++to 1.98731e-08
Heightened Def Con from 1.98731e-08 +++++++++++++++++++++++++++to 1.99707e-08
Heightened Def Con from 1.99707e-08 +++++++++++++++++++++++++++to 2.00684e-08
Heightened Def Con from 2.00684e-08 +++++++++++++++++++++++++++to 2.0166e-08
Heightened Def Con from 2.0166e-08 +++++++++++++++++++++++++++to 2.02637e-08
Heightened Def Con from 2.02637e-08 +++++++++++++++++++++++++++to 2.03613e-08
Heightened Def Con from 2.03613e-08 +++++++++++++++++++++++++++to 2.0459e-08
Heightened Def Con from 2.0459e-08 +++++++++++++++++++++++++++to 2.05567e-08
Heightened Def Con from 2.05567e-08 +++++++++++++++++++++++++++to 2.06543e-08
Heightened Def Con from 2.06543e-08 +++++++++++++++++++++++++++to 2.0752e-08
Heightened Def Con from 2.0752e-08 +++++++++++++++++++++++++++to 2.08496e-08
Heightened Def Con from 2.08496e-08 +++++++++++++++++++++++++++to 2.09473e-08
Heightened Def Con from 2.09473e-08 +++++++++++++++++++++++++++to 2.10449e-08
Heightened Def Con from 2.10449e-08 +++++++++++++++++++++++++++to 2.11426e-08
Heightened Def Con from 2.11426e-08 +++++++++++++++++++++++++++to 2.12403e-08
Heightened Def Con from 2.12403e-08 +++++++++++++++++++++++++++to 2.13379e-08
Heightened Def Con from 2.13379e-08 +++++++++++++++++++++++++++to 2.14356e-08
Heightened Def Con from 2.14356e-08 +++++++++++++++++++++++++++to 2.15332e-08
Heightened Def Con from 2.15332e-08 +++++++++++++++++++++++++++to 2.16309e-08
Heightened Def Con from 2.16309e-08 +++++++++++++++++++++++++++to 2.17285e-08
Heightened Def Con from 2.17285e-08 +++++++++++++++++++++++++++to 2.18262e-08
Heightened Def Con from 2.18262e-08 +++++++++++++++++++++++++++to 2.19238e-08
Heightened Def Con from 2.19238e-08 +++++++++++++++++++++++++++to 2.20215e-08
Heightened Def Con from 2.20215e-08 +++++++++++++++++++++++++++to 2.21192e-08
Heightened Def Con from 2.21192e-08 +++++++++++++++++++++++++++to 2.22168e-08
Heightened Def Con from 2.22168e-08 +++++++++++++++++++++++++++to 2.23145e-08
Heightened Def Con from 2.23145e-08 +++++++++++++++++++++++++++to 2.24121e-08
Heightened Def Con from 2.24121e-08 +++++++++++++++++++++++++++to 2.25098e-08
Heightened Def Con from 2.25098e-08 +++++++++++++++++++++++++++to 2.26074e-08
Heightened Def Con from 2.26074e-08 +++++++++++++++++++++++++++to 2.27051e-08
Heightened Def Con from 2.27051e-08 +++++++++++++++++++++++++++to 2.28028e-08
Heightened Def Con from 2.28028e-08 +++++++++++++++++++++++++++to 2.29004e-08
Heightened Def Con from 2.29004e-08 +++++++++++++++++++++++++++to 2.29981e-08
Heightened Def Con from 2.29981e-08 +++++++++++++++++++++++++++to 2.30957e-08
Heightened Def Con from 2.30957e-08 +++++++++++++++++++++++++++to 2.31934e-08
Heightened Def Con from 2.31934e-08 +++++++++++++++++++++++++++to 2.3291e-08
Heightened Def Con from 2.3291e-08 +++++++++++++++++++++++++++to 2.33887e-08
Heightened Def Con from 2.33887e-08 +++++++++++++++++++++++++++to 2.34863e-08
Heightened Def Con from 2.34863e-08 +++++++++++++++++++++++++++to 2.3584e-08
Heightened Def Con from 2.3584e-08 +++++++++++++++++++++++++++to 2.36817e-08
Heightened Def Con from 2.36817e-08 +++++++++++++++++++++++++++to 2.37793e-08
Heightened Def Con from 2.37793e-08 +++++++++++++++++++++++++++to 2.3877e-08
Heightened Def Con from 2.3877e-08 +++++++++++++++++++++++++++to 2.39746e-08
Heightened Def Con from 2.39746e-08 +++++++++++++++++++++++++++to 2.40723e-08
Heightened Def Con from 2.40723e-08 +++++++++++++++++++++++++++to 2.41699e-08
Heightened Def Con from 2.41699e-08 +++++++++++++++++++++++++++to 2.42676e-08
Heightened Def Con from 2.42676e-08 +++++++++++++++++++++++++++to 2.43653e-08
Heightened Def Con from 2.43653e-08 +++++++++++++++++++++++++++to 2.44629e-08
Heightened Def Con from 2.44629e-08 +++++++++++++++++++++++++++to 2.45606e-08
Heightened Def Con from 2.45606e-08 +++++++++++++++++++++++++++to 2.46582e-08
Heightened Def Con from 2.46582e-08 +++++++++++++++++++++++++++to 2.47559e-08
Heightened Def Con from 2.47559e-08 +++++++++++++++++++++++++++to 2.48535e-08
Heightened Def Con from 2.48535e-08 +++++++++++++++++++++++++++to 2.49512e-08
Heightened Def Con from 2.49512e-08 +++++++++++++++++++++++++++to 2.50488e-08
Heightened Def Con from 2.50488e-08 +++++++++++++++++++++++++++to 2.51465e-08
Heightened Def Con from 2.51465e-08 +++++++++++++++++++++++++++to 2.52442e-08
Heightened Def Con from 2.52442e-08 +++++++++++++++++++++++++++to 2.53418e-08
Heightened Def Con from 2.53418e-08 +++++++++++++++++++++++++++to 2.54395e-08
Heightened Def Con from 2.54395e-08 +++++++++++++++++++++++++++to 2.55371e-08
Heightened Def Con from 2.55371e-08 +++++++++++++++++++++++++++to 2.56348e-08
Heightened Def Con from 2.56348e-08 +++++++++++++++++++++++++++to 2.57324e-08
Heightened Def Con from 2.57324e-08 +++++++++++++++++++++++++++to 2.58301e-08
Heightened Def Con from 2.58301e-08 +++++++++++++++++++++++++++to 2.59278e-08
Heightened Def Con from 2.59278e-08 +++++++++++++++++++++++++++to 2.60254e-08
Heightened Def Con from 2.60254e-08 +++++++++++++++++++++++++++to 2.61231e-08
Heightened Def Con from 2.61231e-08 +++++++++++++++++++++++++++to 2.62207e-08
Heightened Def Con from 2.62207e-08 +++++++++++++++++++++++++++to 2.63184e-08
Heightened Def Con from 2.63184e-08 +++++++++++++++++++++++++++to 2.6416e-08
Heightened Def Con from 2.6416e-08 +++++++++++++++++++++++++++to 2.65137e-08
Heightened Def Con from 2.65137e-08 +++++++++++++++++++++++++++to 2.66113e-08
Heightened Def Con from 2.66113e-08 +++++++++++++++++++++++++++to 2.6709e-08
Heightened Def Con from 2.6709e-08 +++++++++++++++++++++++++++to 2.68067e-08
Heightened Def Con from 2.68067e-08 +++++++++++++++++++++++++++to 2.69043e-08
Heightened Def Con from 2.69043e-08 +++++++++++++++++++++++++++to 2.7002e-08
Heightened Def Con from 2.7002e-08 +++++++++++++++++++++++++++to 2.70996e-08
Heightened Def Con from 2.70996e-08 +++++++++++++++++++++++++++to 2.71973e-08
Heightened Def Con from 2.71973e-08 +++++++++++++++++++++++++++to 2.72949e-08
Heightened Def Con from 2.72949e-08 +++++++++++++++++++++++++++to 2.73926e-08
Heightened Def Con from 2.73926e-08 +++++++++++++++++++++++++++to 2.74903e-08
Heightened Def Con from 2.74903e-08 +++++++++++++++++++++++++++to 2.75879e-08
Heightened Def Con from 2.75879e-08 +++++++++++++++++++++++++++to 2.76856e-08
Heightened Def Con from 2.76856e-08 +++++++++++++++++++++++++++to 2.77832e-08
Heightened Def Con from 2.77832e-08 +++++++++++++++++++++++++++to 2.78809e-08
Heightened Def Con from 2.78809e-08 +++++++++++++++++++++++++++to 2.79785e-08
Heightened Def Con from 2.79785e-08 +++++++++++++++++++++++++++to 2.80762e-08
Heightened Def Con from 2.80762e-08 +++++++++++++++++++++++++++to 2.81738e-08
Heightened Def Con from 2.81738e-08 +++++++++++++++++++++++++++to 2.82715e-08
Heightened Def Con from 2.82715e-08 +++++++++++++++++++++++++++to 2.83692e-08
Heightened Def Con from 2.83692e-08 +++++++++++++++++++++++++++to 2.84668e-08
Heightened Def Con from 2.84668e-08 +++++++++++++++++++++++++++to 2.85645e-08
Heightened Def Con from 2.85645e-08 +++++++++++++++++++++++++++to 2.86621e-08
Heightened Def Con from 2.86621e-08 +++++++++++++++++++++++++++to 2.87598e-08
Heightened Def Con from 2.87598e-08 +++++++++++++++++++++++++++to 2.88574e-08
Heightened Def Con from 2.88574e-08 +++++++++++++++++++++++++++to 2.89551e-08
Heightened Def Con from 2.89551e-08 +++++++++++++++++++++++++++to 2.90528e-08
Heightened Def Con from 2.90528e-08 +++++++++++++++++++++++++++to 2.91504e-08
Heightened Def Con from 2.91504e-08 +++++++++++++++++++++++++++to 2.92481e-08
Heightened Def Con from 2.92481e-08 +++++++++++++++++++++++++++to 2.93457e-08
Heightened Def Con from 2.93457e-08 +++++++++++++++++++++++++++to 2.94434e-08
Heightened Def Con from 2.94434e-08 +++++++++++++++++++++++++++to 2.9541e-08
Heightened Def Con from 2.9541e-08 +++++++++++++++++++++++++++to 2.96387e-08
Heightened Def Con from 2.96387e-08 +++++++++++++++++++++++++++to 2.97363e-08
Heightened Def Con from 2.97363e-08 +++++++++++++++++++++++++++to 2.9834e-08
Heightened Def Con from 2.9834e-08 +++++++++++++++++++++++++++to 2.99317e-08
Heightened Def Con from 2.99317e-08 +++++++++++++++++++++++++++to 3.00293e-08
Heightened Def Con from 3.00293e-08 +++++++++++++++++++++++++++to 3.0127e-08
Heightened Def Con from 3.0127e-08 +++++++++++++++++++++++++++to 3.02246e-08
Heightened Def Con from 3.02246e-08 +++++++++++++++++++++++++++to 3.03223e-08
Heightened Def Con from 3.03223e-08 +++++++++++++++++++++++++++to 3.04199e-08
Heightened Def Con from 3.04199e-08 +++++++++++++++++++++++++++to 3.05176e-08
Heightened Def Con from 3.05176e-08 +++++++++++++++++++++++++++to 3.06153e-08
Heightened Def Con from 3.06153e-08 +++++++++++++++++++++++++++to 3.07129e-08
Heightened Def Con from 3.07129e-08 +++++++++++++++++++++++++++to 3.08106e-08
Heightened Def Con from 3.08106e-08 +++++++++++++++++++++++++++to 3.09082e-08
Heightened Def Con from 3.09082e-08 +++++++++++++++++++++++++++to 3.10059e-08
Heightened Def Con from 3.10059e-08 +++++++++++++++++++++++++++to 3.11035e-08
Heightened Def Con from 3.11035e-08 +++++++++++++++++++++++++++to 3.12012e-08
Heightened Def Con from 3.12012e-08 +++++++++++++++++++++++++++to 3.12988e-08
Heightened Def Con from 3.12988e-08 +++++++++++++++++++++++++++to 3.13965e-08
Heightened Def Con from 3.13965e-08 +++++++++++++++++++++++++++to 3.14942e-08
Heightened Def Con from 3.14942e-08 +++++++++++++++++++++++++++to 3.15918e-08
Heightened Def Con from 3.15918e-08 +++++++++++++++++++++++++++to 3.16895e-08
Heightened Def Con from 3.16895e-08 +++++++++++++++++++++++++++to 3.17871e-08
Heightened Def Con from 3.17871e-08 +++++++++++++++++++++++++++to 3.18848e-08
Heightened Def Con from 3.18848e-08 +++++++++++++++++++++++++++to 3.19824e-08
Heightened Def Con from 3.19824e-08 +++++++++++++++++++++++++++to 3.20801e-08
Heightened Def Con from 3.20801e-08 +++++++++++++++++++++++++++to 3.21778e-08
Heightened Def Con from 3.21778e-08 +++++++++++++++++++++++++++to 3.22754e-08
Heightened Def Con from 3.22754e-08 +++++++++++++++++++++++++++to 3.23731e-08
Heightened Def Con from 3.23731e-08 +++++++++++++++++++++++++++to 3.24707e-08
Heightened Def Con from 3.24707e-08 +++++++++++++++++++++++++++to 3.25684e-08
Heightened Def Con from 3.25684e-08 +++++++++++++++++++++++++++to 3.2666e-08
Heightened Def Con from 3.2666e-08 +++++++++++++++++++++++++++to 3.27637e-08
Heightened Def Con from 3.27637e-08 +++++++++++++++++++++++++++to 3.28613e-08
Heightened Def Con from 3.28613e-08 +++++++++++++++++++++++++++to 3.2959e-08
Heightened Def Con from 3.2959e-08 +++++++++++++++++++++++++++to 3.30567e-08
Heightened Def Con from 3.30567e-08 +++++++++++++++++++++++++++to 3.31543e-08
Heightened Def Con from 3.31543e-08 +++++++++++++++++++++++++++to 3.3252e-08
Heightened Def Con from 3.3252e-08 +++++++++++++++++++++++++++to 3.33496e-08
Heightened Def Con from 3.33496e-08 +++++++++++++++++++++++++++to 3.34473e-08
Heightened Def Con from 3.34473e-08 +++++++++++++++++++++++++++to 3.35449e-08
Heightened Def Con from 3.35449e-08 +++++++++++++++++++++++++++to 3.36426e-08
Heightened Def Con from 3.36426e-08 +++++++++++++++++++++++++++to 3.37403e-08
Heightened Def Con from 3.37403e-08 +++++++++++++++++++++++++++to 3.38379e-08
Heightened Def Con from 3.38379e-08 +++++++++++++++++++++++++++to 3.39356e-08
Heightened Def Con from 3.39356e-08 +++++++++++++++++++++++++++to 3.40332e-08
Heightened Def Con from 3.40332e-08 +++++++++++++++++++++++++++to 3.41309e-08
Heightened Def Con from 3.41309e-08 +++++++++++++++++++++++++++to 3.42285e-08
Heightened Def Con from 3.42285e-08 +++++++++++++++++++++++++++to 3.43262e-08
Heightened Def Con from 3.43262e-08 +++++++++++++++++++++++++++to 3.44238e-08
Heightened Def Con from 3.44238e-08 +++++++++++++++++++++++++++to 3.45215e-08
Heightened Def Con from 3.45215e-08 +++++++++++++++++++++++++++to 3.46192e-08
Heightened Def Con from 3.46192e-08 +++++++++++++++++++++++++++to 3.47168e-08
Heightened Def Con from 3.47168e-08 +++++++++++++++++++++++++++to 3.48145e-08
Heightened Def Con from 3.48145e-08 +++++++++++++++++++++++++++to 3.49121e-08
Heightened Def Con from 3.49121e-08 +++++++++++++++++++++++++++to 3.50098e-08
Heightened Def Con from 3.50098e-08 +++++++++++++++++++++++++++to 3.51074e-08
Heightened Def Con from 3.51074e-08 +++++++++++++++++++++++++++to 3.52051e-08
Heightened Def Con from 3.52051e-08 +++++++++++++++++++++++++++to 3.53028e-08
Heightened Def Con from 3.53028e-08 +++++++++++++++++++++++++++to 3.54004e-08
Heightened Def Con from 3.54004e-08 +++++++++++++++++++++++++++to 3.54981e-08
Heightened Def Con from 3.54981e-08 +++++++++++++++++++++++++++to 3.55957e-08
Heightened Def Con from 3.55957e-08 +++++++++++++++++++++++++++to 3.56934e-08
Heightened Def Con from 3.56934e-08 +++++++++++++++++++++++++++to 3.5791e-08
Heightened Def Con from 3.5791e-08 +++++++++++++++++++++++++++to 3.58887e-08
Heightened Def Con from 3.58887e-08 +++++++++++++++++++++++++++to 3.59863e-08
Heightened Def Con from 3.59863e-08 +++++++++++++++++++++++++++to 3.6084e-08
Heightened Def Con from 3.6084e-08 +++++++++++++++++++++++++++to 3.61817e-08
Heightened Def Con from 3.61817e-08 +++++++++++++++++++++++++++to 3.62793e-08
Heightened Def Con from 3.62793e-08 +++++++++++++++++++++++++++to 3.6377e-08
Heightened Def Con from 3.6377e-08 +++++++++++++++++++++++++++to 3.64746e-08
Heightened Def Con from 3.64746e-08 +++++++++++++++++++++++++++to 3.65723e-08
Heightened Def Con from 3.65723e-08 +++++++++++++++++++++++++++to 3.66699e-08
Heightened Def Con from 3.66699e-08 +++++++++++++++++++++++++++to 3.67676e-08
Heightened Def Con from 3.67676e-08 +++++++++++++++++++++++++++to 3.68653e-08
Heightened Def Con from 3.68653e-08 +++++++++++++++++++++++++++to 3.69629e-08
Heightened Def Con from 3.69629e-08 +++++++++++++++++++++++++++to 3.70606e-08
Heightened Def Con from 3.70606e-08 +++++++++++++++++++++++++++to 3.71582e-08
Heightened Def Con from 3.71582e-08 +++++++++++++++++++++++++++to 3.72559e-08
Heightened Def Con from 3.72559e-08 +++++++++++++++++++++++++++to 3.73535e-08
Heightened Def Con from 3.73535e-08 +++++++++++++++++++++++++++to 3.74512e-08
Heightened Def Con from 3.74512e-08 +++++++++++++++++++++++++++to 3.75488e-08
Heightened Def Con from 3.75488e-08 +++++++++++++++++++++++++++to 3.76465e-08
Heightened Def Con from 3.76465e-08 +++++++++++++++++++++++++++to 3.77442e-08
Heightened Def Con from 3.77442e-08 +++++++++++++++++++++++++++to 3.78418e-08
Heightened Def Con from 3.78418e-08 +++++++++++++++++++++++++++to 3.79395e-08
Heightened Def Con from 3.79395e-08 +++++++++++++++++++++++++++to 3.80371e-08
Heightened Def Con from 3.80371e-08 +++++++++++++++++++++++++++to 3.81348e-08
Heightened Def Con from 3.81348e-08 +++++++++++++++++++++++++++to 3.82324e-08
Heightened Def Con from 3.82324e-08 +++++++++++++++++++++++++++to 3.83301e-08
Heightened Def Con from 3.83301e-08 +++++++++++++++++++++++++++to 3.84278e-08
Heightened Def Con from 3.84278e-08 +++++++++++++++++++++++++++to 3.85254e-08
Heightened Def Con from 3.85254e-08 +++++++++++++++++++++++++++to 3.86231e-08
Heightened Def Con from 3.86231e-08 +++++++++++++++++++++++++++to 3.87207e-08
Heightened Def Con from 3.87207e-08 +++++++++++++++++++++++++++to 3.88184e-08
Heightened Def Con from 3.88184e-08 +++++++++++++++++++++++++++to 3.8916e-08
Heightened Def Con from 3.8916e-08 +++++++++++++++++++++++++++to 3.90137e-08
Heightened Def Con from 3.90137e-08 +++++++++++++++++++++++++++to 3.91113e-08
Heightened Def Con from 3.91113e-08 +++++++++++++++++++++++++++to 3.9209e-08
Heightened Def Con from 3.9209e-08 +++++++++++++++++++++++++++to 3.93067e-08
Heightened Def Con from 3.93067e-08 +++++++++++++++++++++++++++to 3.94043e-08
Heightened Def Con from 3.94043e-08 +++++++++++++++++++++++++++to 3.9502e-08
Heightened Def Con from 3.9502e-08 +++++++++++++++++++++++++++to 3.95996e-08
Heightened Def Con from 3.95996e-08 +++++++++++++++++++++++++++to 3.96973e-08
Heightened Def Con from 3.96973e-08 +++++++++++++++++++++++++++to 3.97949e-08
Heightened Def Con from 3.97949e-08 +++++++++++++++++++++++++++to 3.98926e-08
Heightened Def Con from 3.98926e-08 +++++++++++++++++++++++++++to 3.99903e-08
Heightened Def Con from 3.99903e-08 +++++++++++++++++++++++++++to 4.00879e-08
Heightened Def Con from 4.00879e-08 +++++++++++++++++++++++++++to 4.01856e-08
Heightened Def Con from 4.01856e-08 +++++++++++++++++++++++++++to 4.02832e-08
Heightened Def Con from 4.02832e-08 +++++++++++++++++++++++++++to 4.03809e-08
Heightened Def Con from 4.03809e-08 +++++++++++++++++++++++++++to 4.04785e-08
Heightened Def Con from 4.04785e-08 +++++++++++++++++++++++++++to 4.05762e-08
Heightened Def Con from 4.05762e-08 +++++++++++++++++++++++++++to 4.06738e-08
Heightened Def Con from 4.06738e-08 +++++++++++++++++++++++++++to 4.07715e-08
Heightened Def Con from 4.07715e-08 +++++++++++++++++++++++++++to 4.08692e-08
Heightened Def Con from 4.08692e-08 +++++++++++++++++++++++++++to 4.09668e-08
Heightened Def Con from 4.09668e-08 +++++++++++++++++++++++++++to 4.10645e-08
Heightened Def Con from 4.10645e-08 +++++++++++++++++++++++++++to 4.11621e-08
Heightened Def Con from 4.11621e-08 +++++++++++++++++++++++++++to 4.12598e-08
Heightened Def Con from 4.12598e-08 +++++++++++++++++++++++++++to 4.13574e-08
Heightened Def Con from 4.13574e-08 +++++++++++++++++++++++++++to 4.14551e-08
Heightened Def Con from 4.14551e-08 +++++++++++++++++++++++++++to 4.15528e-08
Heightened Def Con from 4.15528e-08 +++++++++++++++++++++++++++to 4.16504e-08
Heightened Def Con from 4.16504e-08 +++++++++++++++++++++++++++to 4.17481e-08
Heightened Def Con from 4.17481e-08 +++++++++++++++++++++++++++to 4.18457e-08
Heightened Def Con from 4.18457e-08 +++++++++++++++++++++++++++to 4.19434e-08
Heightened Def Con from 4.19434e-08 +++++++++++++++++++++++++++to 4.2041e-08
Heightened Def Con from 4.2041e-08 +++++++++++++++++++++++++++to 4.21387e-08
Heightened Def Con from 4.21387e-08 +++++++++++++++++++++++++++to 4.22363e-08
Heightened Def Con from 4.22363e-08 +++++++++++++++++++++++++++to 4.2334e-08
Heightened Def Con from 4.2334e-08 +++++++++++++++++++++++++++to 4.24317e-08
Heightened Def Con from 4.24317e-08 +++++++++++++++++++++++++++to 4.25293e-08
Heightened Def Con from 4.25293e-08 +++++++++++++++++++++++++++to 4.2627e-08
Heightened Def Con from 4.2627e-08 +++++++++++++++++++++++++++to 4.27246e-08
Heightened Def Con from 4.27246e-08 +++++++++++++++++++++++++++to 4.28223e-08
Heightened Def Con from 4.28223e-08 +++++++++++++++++++++++++++to 4.29199e-08
Heightened Def Con from 4.29199e-08 +++++++++++++++++++++++++++to 4.30176e-08
Heightened Def Con from 4.30176e-08 +++++++++++++++++++++++++++to 4.31153e-08
Heightened Def Con from 4.31153e-08 +++++++++++++++++++++++++++to 4.32129e-08
Heightened Def Con from 4.32129e-08 +++++++++++++++++++++++++++to 4.33106e-08
Heightened Def Con from 4.33106e-08 +++++++++++++++++++++++++++to 4.34082e-08
Heightened Def Con from 4.34082e-08 +++++++++++++++++++++++++++to 4.35059e-08
Heightened Def Con from 4.35059e-08 +++++++++++++++++++++++++++to 4.36035e-08
Heightened Def Con from 4.36035e-08 +++++++++++++++++++++++++++to 4.37012e-08
Heightened Def Con from 4.37012e-08 +++++++++++++++++++++++++++to 4.37988e-08
Heightened Def Con from 4.37988e-08 +++++++++++++++++++++++++++to 4.38965e-08
Heightened Def Con from 4.38965e-08 +++++++++++++++++++++++++++to 4.39942e-08
Heightened Def Con from 4.39942e-08 +++++++++++++++++++++++++++to 4.40918e-08
Heightened Def Con from 4.40918e-08 +++++++++++++++++++++++++++to 4.41895e-08
Heightened Def Con from 4.41895e-08 +++++++++++++++++++++++++++to 4.42871e-08
Heightened Def Con from 4.42871e-08 +++++++++++++++++++++++++++to 4.43848e-08
Heightened Def Con from 4.43848e-08 +++++++++++++++++++++++++++to 4.44824e-08
Heightened Def Con from 4.44824e-08 +++++++++++++++++++++++++++to 4.45801e-08
Heightened Def Con from 4.45801e-08 +++++++++++++++++++++++++++to 4.46778e-08
Heightened Def Con from 4.46778e-08 +++++++++++++++++++++++++++to 4.47754e-08
Heightened Def Con from 4.47754e-08 +++++++++++++++++++++++++++to 4.48731e-08
Heightened Def Con from 4.48731e-08 +++++++++++++++++++++++++++to 4.49707e-08
Heightened Def Con from 4.49707e-08 +++++++++++++++++++++++++++to 4.50684e-08
Heightened Def Con from 4.50684e-08 +++++++++++++++++++++++++++to 4.5166e-08
Heightened Def Con from 4.5166e-08 +++++++++++++++++++++++++++to 4.52637e-08
Heightened Def Con from 4.52637e-08 +++++++++++++++++++++++++++to 4.53613e-08
Heightened Def Con from 4.53613e-08 +++++++++++++++++++++++++++to 4.5459e-08
Heightened Def Con from 4.5459e-08 +++++++++++++++++++++++++++to 4.55567e-08
Heightened Def Con from 4.55567e-08 +++++++++++++++++++++++++++to 4.56543e-08
Heightened Def Con from 4.56543e-08 +++++++++++++++++++++++++++to 4.5752e-08
Heightened Def Con from 4.5752e-08 +++++++++++++++++++++++++++to 4.58496e-08
Heightened Def Con from 4.58496e-08 +++++++++++++++++++++++++++to 4.59473e-08
Heightened Def Con from 4.59473e-08 +++++++++++++++++++++++++++to 4.60449e-08
Heightened Def Con from 4.60449e-08 +++++++++++++++++++++++++++to 4.61426e-08
Heightened Def Con from 4.61426e-08 +++++++++++++++++++++++++++to 4.62403e-08
Heightened Def Con from 4.62403e-08 +++++++++++++++++++++++++++to 4.63379e-08
Heightened Def Con from 4.63379e-08 +++++++++++++++++++++++++++to 4.64356e-08
Heightened Def Con from 4.64356e-08 +++++++++++++++++++++++++++to 4.65332e-08
Heightened Def Con from 4.65332e-08 +++++++++++++++++++++++++++to 4.66309e-08
Heightened Def Con from 4.66309e-08 +++++++++++++++++++++++++++to 4.67285e-08
Heightened Def Con from 4.67285e-08 +++++++++++++++++++++++++++to 4.68262e-08
Heightened Def Con from 4.68262e-08 +++++++++++++++++++++++++++to 4.69238e-08
Heightened Def Con from 4.69238e-08 +++++++++++++++++++++++++++to 4.70215e-08
Heightened Def Con from 4.70215e-08 +++++++++++++++++++++++++++to 4.71192e-08
Heightened Def Con from 4.71192e-08 +++++++++++++++++++++++++++to 4.72168e-08
Heightened Def Con from 4.72168e-08 +++++++++++++++++++++++++++to 4.73145e-08
Heightened Def Con from 4.73145e-08 +++++++++++++++++++++++++++to 4.74121e-08
Heightened Def Con from 4.74121e-08 +++++++++++++++++++++++++++to 4.75098e-08
Heightened Def Con from 4.75098e-08 +++++++++++++++++++++++++++to 4.76074e-08
Heightened Def Con from 4.76074e-08 +++++++++++++++++++++++++++to 4.77051e-08
Heightened Def Con from 4.77051e-08 +++++++++++++++++++++++++++to 4.78028e-08
Heightened Def Con from 4.78028e-08 +++++++++++++++++++++++++++to 4.79004e-08
Heightened Def Con from 4.79004e-08 +++++++++++++++++++++++++++to 4.79981e-08
Heightened Def Con from 4.79981e-08 +++++++++++++++++++++++++++to 4.80957e-08
Heightened Def Con from 4.80957e-08 +++++++++++++++++++++++++++to 4.81934e-08
Heightened Def Con from 4.81934e-08 +++++++++++++++++++++++++++to 4.8291e-08
Heightened Def Con from 4.8291e-08 +++++++++++++++++++++++++++to 4.83887e-08
Heightened Def Con from 4.83887e-08 +++++++++++++++++++++++++++to 4.84863e-08
Heightened Def Con from 4.84863e-08 +++++++++++++++++++++++++++to 4.8584e-08
Heightened Def Con from 4.8584e-08 +++++++++++++++++++++++++++to 4.86817e-08
Heightened Def Con from 4.86817e-08 +++++++++++++++++++++++++++to 4.87793e-08
Heightened Def Con from 4.87793e-08 +++++++++++++++++++++++++++to 4.8877e-08
Heightened Def Con from 4.8877e-08 +++++++++++++++++++++++++++to 4.89746e-08
Heightened Def Con from 4.89746e-08 +++++++++++++++++++++++++++to 4.90723e-08
Heightened Def Con from 4.90723e-08 +++++++++++++++++++++++++++to 4.91699e-08
Heightened Def Con from 4.91699e-08 +++++++++++++++++++++++++++to 4.92676e-08
Heightened Def Con from 4.92676e-08 +++++++++++++++++++++++++++to 4.93653e-08
Heightened Def Con from 4.93653e-08 +++++++++++++++++++++++++++to 4.94629e-08
Heightened Def Con from 4.94629e-08 +++++++++++++++++++++++++++to 4.95606e-08
Heightened Def Con from 4.95606e-08 +++++++++++++++++++++++++++to 4.96582e-08
Heightened Def Con from 4.96582e-08 +++++++++++++++++++++++++++to 4.97559e-08
Heightened Def Con from 4.97559e-08 +++++++++++++++++++++++++++to 4.98535e-08
Heightened Def Con from 4.98535e-08 +++++++++++++++++++++++++++to 4.99512e-08
Heightened Def Con from 4.99512e-08 +++++++++++++++++++++++++++to 5.00488e-08
Heightened Def Con from 5.00488e-08 +++++++++++++++++++++++++++to 5.01465e-08
Heightened Def Con from 5.01465e-08 +++++++++++++++++++++++++++to 5.02442e-08
Heightened Def Con from 5.02442e-08 +++++++++++++++++++++++++++to 5.03418e-08
Heightened Def Con from 5.03418e-08 +++++++++++++++++++++++++++to 5.04395e-08
Heightened Def Con from 5.04395e-08 +++++++++++++++++++++++++++to 5.05371e-08
Heightened Def Con from 5.05371e-08 +++++++++++++++++++++++++++to 5.06348e-08
Heightened Def Con from 5.06348e-08 +++++++++++++++++++++++++++to 5.07324e-08
Heightened Def Con from 5.07324e-08 +++++++++++++++++++++++++++to 5.08301e-08
Heightened Def Con from 5.08301e-08 +++++++++++++++++++++++++++to 5.09278e-08
Heightened Def Con from 5.09278e-08 +++++++++++++++++++++++++++to 5.10254e-08
Heightened Def Con from 5.10254e-08 +++++++++++++++++++++++++++to 5.11231e-08
Heightened Def Con from 5.11231e-08 +++++++++++++++++++++++++++to 5.12207e-08
Heightened Def Con from 5.12207e-08 +++++++++++++++++++++++++++to 5.13184e-08
Heightened Def Con from 5.13184e-08 +++++++++++++++++++++++++++to 5.1416e-08
Heightened Def Con from 5.1416e-08 +++++++++++++++++++++++++++to 5.15137e-08
Heightened Def Con from 5.15137e-08 +++++++++++++++++++++++++++to 5.16113e-08
Heightened Def Con from 5.16113e-08 +++++++++++++++++++++++++++to 5.1709e-08
Heightened Def Con from 5.1709e-08 +++++++++++++++++++++++++++to 5.18067e-08
Heightened Def Con from 5.18067e-08 +++++++++++++++++++++++++++to 5.19043e-08
Heightened Def Con from 5.19043e-08 +++++++++++++++++++++++++++to 5.2002e-08
Heightened Def Con from 5.2002e-08 +++++++++++++++++++++++++++to 5.20996e-08
Heightened Def Con from 5.20996e-08 +++++++++++++++++++++++++++to 5.21973e-08
Heightened Def Con from 5.21973e-08 +++++++++++++++++++++++++++to 5.22949e-08
Heightened Def Con from 5.22949e-08 +++++++++++++++++++++++++++to 5.23926e-08
Heightened Def Con from 5.23926e-08 +++++++++++++++++++++++++++to 5.24903e-08
Heightened Def Con from 5.24903e-08 +++++++++++++++++++++++++++to 5.25879e-08
Heightened Def Con from 5.25879e-08 +++++++++++++++++++++++++++to 5.26856e-08
Heightened Def Con from 5.26856e-08 +++++++++++++++++++++++++++to 5.27832e-08
Heightened Def Con from 5.27832e-08 +++++++++++++++++++++++++++to 5.28809e-08
Heightened Def Con from 5.28809e-08 +++++++++++++++++++++++++++to 5.29785e-08
Heightened Def Con from 5.29785e-08 +++++++++++++++++++++++++++to 5.30762e-08
Heightened Def Con from 5.30762e-08 +++++++++++++++++++++++++++to 5.31738e-08
Heightened Def Con from 5.31738e-08 +++++++++++++++++++++++++++to 5.32715e-08
Heightened Def Con from 5.32715e-08 +++++++++++++++++++++++++++to 5.33692e-08
Heightened Def Con from 5.33692e-08 +++++++++++++++++++++++++++to 5.34668e-08
Heightened Def Con from 5.34668e-08 +++++++++++++++++++++++++++to 5.35645e-08
Heightened Def Con from 5.35645e-08 +++++++++++++++++++++++++++to 5.36621e-08
Heightened Def Con from 5.36621e-08 +++++++++++++++++++++++++++to 5.37598e-08
Heightened Def Con from 5.37598e-08 +++++++++++++++++++++++++++to 5.38574e-08
Heightened Def Con from 5.38574e-08 +++++++++++++++++++++++++++to 5.39551e-08
Heightened Def Con from 5.39551e-08 +++++++++++++++++++++++++++to 5.40528e-08
Heightened Def Con from 5.40528e-08 +++++++++++++++++++++++++++to 5.41504e-08
Heightened Def Con from 5.41504e-08 +++++++++++++++++++++++++++to 5.42481e-08
Heightened Def Con from 5.42481e-08 +++++++++++++++++++++++++++to 5.43457e-08
Heightened Def Con from 5.43457e-08 +++++++++++++++++++++++++++to 5.44434e-08
Heightened Def Con from 5.44434e-08 +++++++++++++++++++++++++++to 5.4541e-08
Heightened Def Con from 5.4541e-08 +++++++++++++++++++++++++++to 5.46387e-08
Heightened Def Con from 5.46387e-08 +++++++++++++++++++++++++++to 5.47363e-08
Heightened Def Con from 5.47363e-08 +++++++++++++++++++++++++++to 5.4834e-08
Heightened Def Con from 5.4834e-08 +++++++++++++++++++++++++++to 5.49317e-08
Heightened Def Con from 5.49317e-08 +++++++++++++++++++++++++++to 5.50293e-08
Heightened Def Con from 5.50293e-08 +++++++++++++++++++++++++++to 5.5127e-08
Heightened Def Con from 5.5127e-08 +++++++++++++++++++++++++++to 5.52246e-08
Heightened Def Con from 5.52246e-08 +++++++++++++++++++++++++++to 5.53223e-08
Heightened Def Con from 5.53223e-08 +++++++++++++++++++++++++++to 5.54199e-08
Heightened Def Con from 5.54199e-08 +++++++++++++++++++++++++++to 5.55176e-08
Heightened Def Con from 5.55176e-08 +++++++++++++++++++++++++++to 5.56153e-08
Heightened Def Con from 5.56153e-08 +++++++++++++++++++++++++++to 5.57129e-08
Heightened Def Con from 5.57129e-08 +++++++++++++++++++++++++++to 5.58106e-08
Heightened Def Con from 5.58106e-08 +++++++++++++++++++++++++++to 5.59082e-08
Heightened Def Con from 5.59082e-08 +++++++++++++++++++++++++++to 5.60059e-08
Heightened Def Con from 5.60059e-08 +++++++++++++++++++++++++++to 5.61035e-08
Heightened Def Con from 5.61035e-08 +++++++++++++++++++++++++++to 5.62012e-08
Heightened Def Con from 5.62012e-08 +++++++++++++++++++++++++++to 5.62988e-08
Heightened Def Con from 5.62988e-08 +++++++++++++++++++++++++++to 5.63965e-08
Heightened Def Con from 5.63965e-08 +++++++++++++++++++++++++++to 5.64942e-08
Heightened Def Con from 5.64942e-08 +++++++++++++++++++++++++++to 5.65918e-08
Heightened Def Con from 5.65918e-08 +++++++++++++++++++++++++++to 5.66895e-08
Heightened Def Con from 5.66895e-08 +++++++++++++++++++++++++++to 5.67871e-08
Heightened Def Con from 5.67871e-08 +++++++++++++++++++++++++++to 5.68848e-08
Heightened Def Con from 5.68848e-08 +++++++++++++++++++++++++++to 5.69824e-08
Heightened Def Con from 5.69824e-08 +++++++++++++++++++++++++++to 5.70801e-08
Heightened Def Con from 5.70801e-08 +++++++++++++++++++++++++++to 5.71778e-08
Heightened Def Con from 5.71778e-08 +++++++++++++++++++++++++++to 5.72754e-08
Heightened Def Con from 5.72754e-08 +++++++++++++++++++++++++++to 5.73731e-08
Heightened Def Con from 5.73731e-08 +++++++++++++++++++++++++++to 5.74707e-08
Heightened Def Con from 5.74707e-08 +++++++++++++++++++++++++++to 5.75684e-08
Heightened Def Con from 5.75684e-08 +++++++++++++++++++++++++++to 5.7666e-08
Heightened Def Con from 5.7666e-08 +++++++++++++++++++++++++++to 5.77637e-08
Heightened Def Con from 5.77637e-08 +++++++++++++++++++++++++++to 5.78613e-08
Heightened Def Con from 5.78613e-08 +++++++++++++++++++++++++++to 5.7959e-08
Heightened Def Con from 5.7959e-08 +++++++++++++++++++++++++++to 5.80567e-08
Heightened Def Con from 5.80567e-08 +++++++++++++++++++++++++++to 5.81543e-08
Heightened Def Con from 5.81543e-08 +++++++++++++++++++++++++++to 5.8252e-08
Heightened Def Con from 5.8252e-08 +++++++++++++++++++++++++++to 5.83496e-08
Heightened Def Con from 5.83496e-08 +++++++++++++++++++++++++++to 5.84473e-08
Heightened Def Con from 5.84473e-08 +++++++++++++++++++++++++++to 5.85449e-08
Heightened Def Con from 5.85449e-08 +++++++++++++++++++++++++++to 5.86426e-08
Heightened Def Con from 5.86426e-08 +++++++++++++++++++++++++++to 5.87403e-08
Heightened Def Con from 5.87403e-08 +++++++++++++++++++++++++++to 5.88379e-08
Heightened Def Con from 5.88379e-08 +++++++++++++++++++++++++++to 5.89356e-08
Heightened Def Con from 5.89356e-08 +++++++++++++++++++++++++++to 5.90332e-08
Heightened Def Con from 5.90332e-08 +++++++++++++++++++++++++++to 5.91309e-08
Heightened Def Con from 5.91309e-08 +++++++++++++++++++++++++++to 5.92285e-08
Heightened Def Con from 5.92285e-08 +++++++++++++++++++++++++++to 5.93262e-08
Heightened Def Con from 5.93262e-08 +++++++++++++++++++++++++++to 5.94238e-08
Heightened Def Con from 5.94238e-08 +++++++++++++++++++++++++++to 5.95215e-08
Heightened Def Con from 5.95215e-08 +++++++++++++++++++++++++++to 5.96192e-08
Heightened Def Con from 5.96192e-08 +++++++++++++++++++++++++++to 5.97168e-08
Heightened Def Con from 5.97168e-08 +++++++++++++++++++++++++++to 5.98145e-08
Heightened Def Con from 5.98145e-08 +++++++++++++++++++++++++++to 5.99121e-08
Heightened Def Con from 5.99121e-08 +++++++++++++++++++++++++++to 6.00098e-08
Heightened Def Con from 6.00098e-08 +++++++++++++++++++++++++++to 6.01074e-08
Heightened Def Con from 6.01074e-08 +++++++++++++++++++++++++++to 6.02051e-08
Heightened Def Con from 6.02051e-08 +++++++++++++++++++++++++++to 6.03028e-08
Heightened Def Con from 6.03028e-08 +++++++++++++++++++++++++++to 6.04004e-08
Heightened Def Con from 6.04004e-08 +++++++++++++++++++++++++++to 6.04981e-08
Heightened Def Con from 6.04981e-08 +++++++++++++++++++++++++++to 6.05957e-08
Heightened Def Con from 6.05957e-08 +++++++++++++++++++++++++++to 6.06934e-08
Heightened Def Con from 6.06934e-08 +++++++++++++++++++++++++++to 6.0791e-08
Heightened Def Con from 6.0791e-08 +++++++++++++++++++++++++++to 6.08887e-08
Heightened Def Con from 6.08887e-08 +++++++++++++++++++++++++++to 6.09863e-08
Heightened Def Con from 6.09863e-08 +++++++++++++++++++++++++++to 6.1084e-08
Heightened Def Con from 6.1084e-08 +++++++++++++++++++++++++++to 6.11817e-08
Heightened Def Con from 6.11817e-08 +++++++++++++++++++++++++++to 6.12793e-08
Heightened Def Con from 6.12793e-08 +++++++++++++++++++++++++++to 6.1377e-08
Heightened Def Con from 6.1377e-08 +++++++++++++++++++++++++++to 6.14746e-08
Heightened Def Con from 6.14746e-08 +++++++++++++++++++++++++++to 6.15723e-08
Heightened Def Con from 6.15723e-08 +++++++++++++++++++++++++++to 6.16699e-08
Heightened Def Con from 6.16699e-08 +++++++++++++++++++++++++++to 6.17676e-08
Heightened Def Con from 6.17676e-08 +++++++++++++++++++++++++++to 6.18653e-08
Heightened Def Con from 6.18653e-08 +++++++++++++++++++++++++++to 6.19629e-08
Heightened Def Con from 6.19629e-08 +++++++++++++++++++++++++++to 6.20606e-08
Heightened Def Con from 6.20606e-08 +++++++++++++++++++++++++++to 6.21582e-08
Heightened Def Con from 6.21582e-08 +++++++++++++++++++++++++++to 6.22559e-08
Heightened Def Con from 6.22559e-08 +++++++++++++++++++++++++++to 6.23535e-08
Heightened Def Con from 6.23535e-08 +++++++++++++++++++++++++++to 6.24512e-08
Heightened Def Con from 6.24512e-08 +++++++++++++++++++++++++++to 6.25488e-08
Heightened Def Con from 6.25488e-08 +++++++++++++++++++++++++++to 6.26465e-08
Heightened Def Con from 6.26465e-08 +++++++++++++++++++++++++++to 6.27442e-08
Heightened Def Con from 6.27442e-08 +++++++++++++++++++++++++++to 6.28418e-08
Heightened Def Con from 6.28418e-08 +++++++++++++++++++++++++++to 6.29395e-08
Heightened Def Con from 6.29395e-08 +++++++++++++++++++++++++++to 6.30371e-08
Heightened Def Con from 6.30371e-08 +++++++++++++++++++++++++++to 6.31348e-08
Heightened Def Con from 6.31348e-08 +++++++++++++++++++++++++++to 6.32324e-08
Heightened Def Con from 6.32324e-08 +++++++++++++++++++++++++++to 6.33301e-08
Heightened Def Con from 6.33301e-08 +++++++++++++++++++++++++++to 6.34278e-08
Heightened Def Con from 6.34278e-08 +++++++++++++++++++++++++++to 6.35254e-08
Heightened Def Con from 6.35254e-08 +++++++++++++++++++++++++++to 6.36231e-08
Heightened Def Con from 6.36231e-08 +++++++++++++++++++++++++++to 6.37207e-08
Heightened Def Con from 6.37207e-08 +++++++++++++++++++++++++++to 6.38184e-08
Heightened Def Con from 6.38184e-08 +++++++++++++++++++++++++++to 6.3916e-08
Heightened Def Con from 6.3916e-08 +++++++++++++++++++++++++++to 6.40137e-08
Heightened Def Con from 6.40137e-08 +++++++++++++++++++++++++++to 6.41113e-08
Heightened Def Con from 6.41113e-08 +++++++++++++++++++++++++++to 6.4209e-08
Heightened Def Con from 6.4209e-08 +++++++++++++++++++++++++++to 6.43067e-08
Heightened Def Con from 6.43067e-08 +++++++++++++++++++++++++++to 6.44043e-08
Heightened Def Con from 6.44043e-08 +++++++++++++++++++++++++++to 6.4502e-08
Heightened Def Con from 6.4502e-08 +++++++++++++++++++++++++++to 6.45996e-08
Heightened Def Con from 6.45996e-08 +++++++++++++++++++++++++++to 6.46973e-08
Heightened Def Con from 6.46973e-08 +++++++++++++++++++++++++++to 6.47949e-08
Heightened Def Con from 6.47949e-08 +++++++++++++++++++++++++++to 6.48926e-08
Heightened Def Con from 6.48926e-08 +++++++++++++++++++++++++++to 6.49903e-08
Heightened Def Con from 6.49903e-08 +++++++++++++++++++++++++++to 6.50879e-08
Heightened Def Con from 6.50879e-08 +++++++++++++++++++++++++++to 6.51856e-08
Heightened Def Con from 6.51856e-08 +++++++++++++++++++++++++++to 6.52832e-08
Heightened Def Con from 6.52832e-08 +++++++++++++++++++++++++++to 6.53809e-08
Heightened Def Con from 6.53809e-08 +++++++++++++++++++++++++++to 6.54785e-08
Heightened Def Con from 6.54785e-08 +++++++++++++++++++++++++++to 6.55762e-08
Heightened Def Con from 6.55762e-08 +++++++++++++++++++++++++++to 6.56738e-08
Heightened Def Con from 6.56738e-08 +++++++++++++++++++++++++++to 6.57715e-08
Heightened Def Con from 6.57715e-08 +++++++++++++++++++++++++++to 6.58692e-08
Heightened Def Con from 6.58692e-08 +++++++++++++++++++++++++++to 6.59668e-08
Heightened Def Con from 6.59668e-08 +++++++++++++++++++++++++++to 6.60645e-08
Heightened Def Con from 6.60645e-08 +++++++++++++++++++++++++++to 6.61621e-08
Heightened Def Con from 6.61621e-08 +++++++++++++++++++++++++++to 6.62598e-08
Heightened Def Con from 6.62598e-08 +++++++++++++++++++++++++++to 6.63574e-08
Heightened Def Con from 6.63574e-08 +++++++++++++++++++++++++++to 6.64551e-08
Heightened Def Con from 6.64551e-08 +++++++++++++++++++++++++++to 6.65528e-08
Heightened Def Con from 6.65528e-08 +++++++++++++++++++++++++++to 6.66504e-08
Heightened Def Con from 6.66504e-08 +++++++++++++++++++++++++++to 6.67481e-08
Heightened Def Con from 6.67481e-08 +++++++++++++++++++++++++++to 6.68457e-08
Heightened Def Con from 6.68457e-08 +++++++++++++++++++++++++++to 6.69434e-08
Heightened Def Con from 6.69434e-08 +++++++++++++++++++++++++++to 6.7041e-08
Heightened Def Con from 6.7041e-08 +++++++++++++++++++++++++++to 6.71387e-08
Heightened Def Con from 6.71387e-08 +++++++++++++++++++++++++++to 6.72363e-08
Heightened Def Con from 6.72363e-08 +++++++++++++++++++++++++++to 6.7334e-08
Heightened Def Con from 6.7334e-08 +++++++++++++++++++++++++++to 6.74317e-08
Heightened Def Con from 6.74317e-08 +++++++++++++++++++++++++++to 6.75293e-08
Heightened Def Con from 6.75293e-08 +++++++++++++++++++++++++++to 6.7627e-08
Heightened Def Con from 6.7627e-08 +++++++++++++++++++++++++++to 6.77246e-08
Heightened Def Con from 6.77246e-08 +++++++++++++++++++++++++++to 6.78223e-08
Heightened Def Con from 6.78223e-08 +++++++++++++++++++++++++++to 6.79199e-08
Heightened Def Con from 6.79199e-08 +++++++++++++++++++++++++++to 6.80176e-08
Heightened Def Con from 6.80176e-08 +++++++++++++++++++++++++++to 6.81153e-08
Heightened Def Con from 6.81153e-08 +++++++++++++++++++++++++++to 6.82129e-08
Heightened Def Con from 6.82129e-08 +++++++++++++++++++++++++++to 6.83106e-08
Heightened Def Con from 6.83106e-08 +++++++++++++++++++++++++++to 6.84082e-08
Heightened Def Con from 6.84082e-08 +++++++++++++++++++++++++++to 6.85059e-08
Heightened Def Con from 6.85059e-08 +++++++++++++++++++++++++++to 6.86035e-08
Heightened Def Con from 6.86035e-08 +++++++++++++++++++++++++++to 6.87012e-08
Heightened Def Con from 6.87012e-08 +++++++++++++++++++++++++++to 6.87988e-08
Heightened Def Con from 6.87988e-08 +++++++++++++++++++++++++++to 6.88965e-08
Heightened Def Con from 6.88965e-08 +++++++++++++++++++++++++++to 6.89942e-08
Heightened Def Con from 6.89942e-08 +++++++++++++++++++++++++++to 6.90918e-08
Heightened Def Con from 6.90918e-08 +++++++++++++++++++++++++++to 6.91895e-08
Heightened Def Con from 6.91895e-08 +++++++++++++++++++++++++++to 6.92871e-08
Heightened Def Con from 6.92871e-08 +++++++++++++++++++++++++++to 6.93848e-08
Heightened Def Con from 6.93848e-08 +++++++++++++++++++++++++++to 6.94824e-08
Heightened Def Con from 6.94824e-08 +++++++++++++++++++++++++++to 6.95801e-08
Heightened Def Con from 6.95801e-08 +++++++++++++++++++++++++++to 6.96778e-08
Heightened Def Con from 6.96778e-08 +++++++++++++++++++++++++++to 6.97754e-08
Heightened Def Con from 6.97754e-08 +++++++++++++++++++++++++++to 6.98731e-08
Heightened Def Con from 6.98731e-08 +++++++++++++++++++++++++++to 6.99707e-08
Heightened Def Con from 6.99707e-08 +++++++++++++++++++++++++++to 7.00684e-08
Heightened Def Con from 7.00684e-08 +++++++++++++++++++++++++++to 7.0166e-08
Heightened Def Con from 7.0166e-08 +++++++++++++++++++++++++++to 7.02637e-08
Heightened Def Con from 7.02637e-08 +++++++++++++++++++++++++++to 7.03613e-08
Heightened Def Con from 7.03613e-08 +++++++++++++++++++++++++++to 7.0459e-08
Heightened Def Con from 7.0459e-08 +++++++++++++++++++++++++++to 7.05567e-08
Heightened Def Con from 7.05567e-08 +++++++++++++++++++++++++++to 7.06543e-08
Heightened Def Con from 7.06543e-08 +++++++++++++++++++++++++++to 7.0752e-08
Heightened Def Con from 7.0752e-08 +++++++++++++++++++++++++++to 7.08496e-08
Heightened Def Con from 7.08496e-08 +++++++++++++++++++++++++++to 7.09473e-08
Heightened Def Con from 7.09473e-08 +++++++++++++++++++++++++++to 7.10449e-08
Heightened Def Con from 7.10449e-08 +++++++++++++++++++++++++++to 7.11426e-08
Heightened Def Con from 7.11426e-08 +++++++++++++++++++++++++++to 7.12403e-08
Heightened Def Con from 7.12403e-08 +++++++++++++++++++++++++++to 7.13379e-08
Heightened Def Con from 7.13379e-08 +++++++++++++++++++++++++++to 7.14356e-08
Heightened Def Con from 7.14356e-08 +++++++++++++++++++++++++++to 7.15332e-08
Heightened Def Con from 7.15332e-08 +++++++++++++++++++++++++++to 7.16309e-08
Heightened Def Con from 7.16309e-08 +++++++++++++++++++++++++++to 7.17285e-08
Heightened Def Con from 7.17285e-08 +++++++++++++++++++++++++++to 7.18262e-08
Heightened Def Con from 7.18262e-08 +++++++++++++++++++++++++++to 7.19238e-08
Heightened Def Con from 7.19238e-08 +++++++++++++++++++++++++++to 7.20215e-08
Heightened Def Con from 7.20215e-08 +++++++++++++++++++++++++++to 7.21192e-08
Heightened Def Con from 7.21192e-08 +++++++++++++++++++++++++++to 7.22168e-08
Heightened Def Con from 7.22168e-08 +++++++++++++++++++++++++++to 7.23145e-08
Heightened Def Con from 7.23145e-08 +++++++++++++++++++++++++++to 7.24121e-08
Heightened Def Con from 7.24121e-08 +++++++++++++++++++++++++++to 7.25098e-08
Heightened Def Con from 7.25098e-08 +++++++++++++++++++++++++++to 7.26074e-08
Heightened Def Con from 7.26074e-08 +++++++++++++++++++++++++++to 7.27051e-08
Heightened Def Con from 7.27051e-08 +++++++++++++++++++++++++++to 7.28028e-08
Heightened Def Con from 7.28028e-08 +++++++++++++++++++++++++++to 7.29004e-08
Heightened Def Con from 7.29004e-08 +++++++++++++++++++++++++++to 7.29981e-08
Heightened Def Con from 7.29981e-08 +++++++++++++++++++++++++++to 7.30957e-08
Heightened Def Con from 7.30957e-08 +++++++++++++++++++++++++++to 7.31934e-08
Heightened Def Con from 7.31934e-08 +++++++++++++++++++++++++++to 7.3291e-08
Heightened Def Con from 7.3291e-08 +++++++++++++++++++++++++++to 7.33887e-08
Heightened Def Con from 7.33887e-08 +++++++++++++++++++++++++++to 7.34863e-08
Heightened Def Con from 7.34863e-08 +++++++++++++++++++++++++++to 7.3584e-08
Heightened Def Con from 7.3584e-08 +++++++++++++++++++++++++++to 7.36817e-08
Heightened Def Con from 7.36817e-08 +++++++++++++++++++++++++++to 7.37793e-08
Heightened Def Con from 7.37793e-08 +++++++++++++++++++++++++++to 7.3877e-08
Heightened Def Con from 7.3877e-08 +++++++++++++++++++++++++++to 7.39746e-08
Heightened Def Con from 7.39746e-08 +++++++++++++++++++++++++++to 7.40723e-08
Heightened Def Con from 7.40723e-08 +++++++++++++++++++++++++++to 7.41699e-08
Heightened Def Con from 7.41699e-08 +++++++++++++++++++++++++++to 7.42676e-08
Heightened Def Con from 7.42676e-08 +++++++++++++++++++++++++++to 7.43653e-08
Heightened Def Con from 7.43653e-08 +++++++++++++++++++++++++++to 7.44629e-08
Heightened Def Con from 7.44629e-08 +++++++++++++++++++++++++++to 7.45606e-08
Heightened Def Con from 7.45606e-08 +++++++++++++++++++++++++++to 7.46582e-08
Heightened Def Con from 7.46582e-08 +++++++++++++++++++++++++++to 7.47559e-08
Heightened Def Con from 7.47559e-08 +++++++++++++++++++++++++++to 7.48535e-08
Heightened Def Con from 7.48535e-08 +++++++++++++++++++++++++++to 7.49512e-08
Heightened Def Con from 7.49512e-08 +++++++++++++++++++++++++++to 7.50488e-08
Heightened Def Con from 7.50488e-08 +++++++++++++++++++++++++++to 7.51465e-08
Heightened Def Con from 7.51465e-08 +++++++++++++++++++++++++++to 7.52442e-08
Heightened Def Con from 7.52442e-08 +++++++++++++++++++++++++++to 7.53418e-08
Heightened Def Con from 7.53418e-08 +++++++++++++++++++++++++++to 7.54395e-08
Heightened Def Con from 7.54395e-08 +++++++++++++++++++++++++++to 7.55371e-08
Heightened Def Con from 7.55371e-08 +++++++++++++++++++++++++++to 7.56348e-08
Heightened Def Con from 7.56348e-08 +++++++++++++++++++++++++++to 7.57324e-08
Heightened Def Con from 7.57324e-08 +++++++++++++++++++++++++++to 7.58301e-08
Heightened Def Con from 7.58301e-08 +++++++++++++++++++++++++++to 7.59278e-08
Heightened Def Con from 7.59278e-08 +++++++++++++++++++++++++++to 7.60254e-08
Heightened Def Con from 7.60254e-08 +++++++++++++++++++++++++++to 7.61231e-08
Heightened Def Con from 7.61231e-08 +++++++++++++++++++++++++++to 7.62207e-08
Heightened Def Con from 7.62207e-08 +++++++++++++++++++++++++++to 7.63184e-08
Heightened Def Con from 7.63184e-08 +++++++++++++++++++++++++++to 7.6416e-08
Heightened Def Con from 7.6416e-08 +++++++++++++++++++++++++++to 7.65137e-08
Heightened Def Con from 7.65137e-08 +++++++++++++++++++++++++++to 7.66113e-08
Heightened Def Con from 7.66113e-08 +++++++++++++++++++++++++++to 7.6709e-08
Heightened Def Con from 7.6709e-08 +++++++++++++++++++++++++++to 7.68067e-08
Heightened Def Con from 7.68067e-08 +++++++++++++++++++++++++++to 7.69043e-08
Heightened Def Con from 7.69043e-08 +++++++++++++++++++++++++++to 7.7002e-08
Heightened Def Con from 7.7002e-08 +++++++++++++++++++++++++++to 7.70996e-08
Heightened Def Con from 7.70996e-08 +++++++++++++++++++++++++++to 7.71973e-08
Heightened Def Con from 7.71973e-08 +++++++++++++++++++++++++++to 7.72949e-08
Heightened Def Con from 7.72949e-08 +++++++++++++++++++++++++++to 7.73926e-08
Heightened Def Con from 7.73926e-08 +++++++++++++++++++++++++++to 7.74903e-08
Heightened Def Con from 7.74903e-08 +++++++++++++++++++++++++++to 7.75879e-08
Heightened Def Con from 7.75879e-08 +++++++++++++++++++++++++++to 7.76856e-08
Heightened Def Con from 7.76856e-08 +++++++++++++++++++++++++++to 7.77832e-08
Heightened Def Con from 7.77832e-08 +++++++++++++++++++++++++++to 7.78809e-08
Heightened Def Con from 7.78809e-08 +++++++++++++++++++++++++++to 7.79785e-08
Heightened Def Con from 7.79785e-08 +++++++++++++++++++++++++++to 7.80762e-08
Heightened Def Con from 7.80762e-08 +++++++++++++++++++++++++++to 7.81738e-08
Heightened Def Con from 7.81738e-08 +++++++++++++++++++++++++++to 7.82715e-08
Heightened Def Con from 7.82715e-08 +++++++++++++++++++++++++++to 7.83692e-08
Heightened Def Con from 7.83692e-08 +++++++++++++++++++++++++++to 7.84668e-08
Heightened Def Con from 7.84668e-08 +++++++++++++++++++++++++++to 7.85645e-08
Heightened Def Con from 7.85645e-08 +++++++++++++++++++++++++++to 7.86621e-08
Heightened Def Con from 7.86621e-08 +++++++++++++++++++++++++++to 7.87598e-08
Heightened Def Con from 7.87598e-08 +++++++++++++++++++++++++++to 7.88574e-08
Heightened Def Con from 7.88574e-08 +++++++++++++++++++++++++++to 7.89551e-08
Heightened Def Con from 7.89551e-08 +++++++++++++++++++++++++++to 7.90528e-08
Heightened Def Con from 7.90528e-08 +++++++++++++++++++++++++++to 7.91504e-08
Heightened Def Con from 7.91504e-08 +++++++++++++++++++++++++++to 7.92481e-08
Heightened Def Con from 7.92481e-08 +++++++++++++++++++++++++++to 7.93457e-08
Heightened Def Con from 7.93457e-08 +++++++++++++++++++++++++++to 7.94434e-08
Heightened Def Con from 7.94434e-08 +++++++++++++++++++++++++++to 7.9541e-08
Heightened Def Con from 7.9541e-08 +++++++++++++++++++++++++++to 7.96387e-08
Heightened Def Con from 7.96387e-08 +++++++++++++++++++++++++++to 7.97363e-08
Heightened Def Con from 7.97363e-08 +++++++++++++++++++++++++++to 7.9834e-08
Heightened Def Con from 7.9834e-08 +++++++++++++++++++++++++++to 7.99317e-08
Heightened Def Con from 7.99317e-08 +++++++++++++++++++++++++++to 8.00293e-08
Heightened Def Con from 8.00293e-08 +++++++++++++++++++++++++++to 8.0127e-08
Heightened Def Con from 8.0127e-08 +++++++++++++++++++++++++++to 8.02246e-08
Heightened Def Con from 8.02246e-08 +++++++++++++++++++++++++++to 8.03223e-08
Heightened Def Con from 8.03223e-08 +++++++++++++++++++++++++++to 8.04199e-08
Heightened Def Con from 8.04199e-08 +++++++++++++++++++++++++++to 8.05176e-08
Heightened Def Con from 8.05176e-08 +++++++++++++++++++++++++++to 8.06153e-08
Heightened Def Con from 8.06153e-08 +++++++++++++++++++++++++++to 8.07129e-08
Heightened Def Con from 8.07129e-08 +++++++++++++++++++++++++++to 8.08106e-08
Heightened Def Con from 8.08106e-08 +++++++++++++++++++++++++++to 8.09082e-08
Heightened Def Con from 8.09082e-08 +++++++++++++++++++++++++++to 8.10059e-08
Heightened Def Con from 8.10059e-08 +++++++++++++++++++++++++++to 8.11035e-08
Heightened Def Con from 8.11035e-08 +++++++++++++++++++++++++++to 8.12012e-08
Heightened Def Con from 8.12012e-08 +++++++++++++++++++++++++++to 8.12988e-08
Heightened Def Con from 8.12988e-08 +++++++++++++++++++++++++++to 8.13965e-08
Heightened Def Con from 8.13965e-08 +++++++++++++++++++++++++++to 8.14942e-08
Heightened Def Con from 8.14942e-08 +++++++++++++++++++++++++++to 8.15918e-08
Heightened Def Con from 8.15918e-08 +++++++++++++++++++++++++++to 8.16895e-08
Heightened Def Con from 8.16895e-08 +++++++++++++++++++++++++++to 8.17871e-08
Heightened Def Con from 8.17871e-08 +++++++++++++++++++++++++++to 8.18848e-08
Heightened Def Con from 8.18848e-08 +++++++++++++++++++++++++++to 8.19824e-08
Heightened Def Con from 8.19824e-08 +++++++++++++++++++++++++++to 8.20801e-08
Heightened Def Con from 8.20801e-08 +++++++++++++++++++++++++++to 8.21778e-08
Heightened Def Con from 8.21778e-08 +++++++++++++++++++++++++++to 8.22754e-08
Heightened Def Con from 8.22754e-08 +++++++++++++++++++++++++++to 8.23731e-08
Heightened Def Con from 8.23731e-08 +++++++++++++++++++++++++++to 8.24707e-08
Heightened Def Con from 8.24707e-08 +++++++++++++++++++++++++++to 8.25684e-08
Heightened Def Con from 8.25684e-08 +++++++++++++++++++++++++++to 8.2666e-08
Heightened Def Con from 8.2666e-08 +++++++++++++++++++++++++++to 8.27637e-08
Heightened Def Con from 8.27637e-08 +++++++++++++++++++++++++++to 8.28613e-08
Heightened Def Con from 8.28613e-08 +++++++++++++++++++++++++++to 8.2959e-08
Heightened Def Con from 8.2959e-08 +++++++++++++++++++++++++++to 8.30567e-08
Heightened Def Con from 8.30567e-08 +++++++++++++++++++++++++++to 8.31543e-08
Heightened Def Con from 8.31543e-08 +++++++++++++++++++++++++++to 8.3252e-08
Heightened Def Con from 8.3252e-08 +++++++++++++++++++++++++++to 8.33496e-08
Heightened Def Con from 8.33496e-08 +++++++++++++++++++++++++++to 8.34473e-08
Heightened Def Con from 8.34473e-08 +++++++++++++++++++++++++++to 8.35449e-08
Heightened Def Con from 8.35449e-08 +++++++++++++++++++++++++++to 8.36426e-08
Heightened Def Con from 8.36426e-08 +++++++++++++++++++++++++++to 8.37403e-08
Heightened Def Con from 8.37403e-08 +++++++++++++++++++++++++++to 8.38379e-08
Heightened Def Con from 8.38379e-08 +++++++++++++++++++++++++++to 8.39356e-08
Heightened Def Con from 8.39356e-08 +++++++++++++++++++++++++++to 8.40332e-08
Heightened Def Con from 8.40332e-08 +++++++++++++++++++++++++++to 8.41309e-08
Heightened Def Con from 8.41309e-08 +++++++++++++++++++++++++++to 8.42285e-08
Heightened Def Con from 8.42285e-08 +++++++++++++++++++++++++++to 8.43262e-08
Heightened Def Con from 8.43262e-08 +++++++++++++++++++++++++++to 8.44238e-08
Heightened Def Con from 8.44238e-08 +++++++++++++++++++++++++++to 8.45215e-08
Heightened Def Con from 8.45215e-08 +++++++++++++++++++++++++++to 8.46192e-08
Heightened Def Con from 8.46192e-08 +++++++++++++++++++++++++++to 8.47168e-08
Heightened Def Con from 8.47168e-08 +++++++++++++++++++++++++++to 8.48145e-08
Heightened Def Con from 8.48145e-08 +++++++++++++++++++++++++++to 8.49121e-08
Heightened Def Con from 8.49121e-08 +++++++++++++++++++++++++++to 8.50098e-08
Heightened Def Con from 8.50098e-08 +++++++++++++++++++++++++++to 8.51074e-08
Heightened Def Con from 8.51074e-08 +++++++++++++++++++++++++++to 8.52051e-08
Heightened Def Con from 8.52051e-08 +++++++++++++++++++++++++++to 8.53028e-08
Heightened Def Con from 8.53028e-08 +++++++++++++++++++++++++++to 8.54004e-08
Heightened Def Con from 8.54004e-08 +++++++++++++++++++++++++++to 8.54981e-08
Heightened Def Con from 8.54981e-08 +++++++++++++++++++++++++++to 8.55957e-08
Heightened Def Con from 8.55957e-08 +++++++++++++++++++++++++++to 8.56934e-08
Heightened Def Con from 8.56934e-08 +++++++++++++++++++++++++++to 8.5791e-08
Heightened Def Con from 8.5791e-08 +++++++++++++++++++++++++++to 8.58887e-08
Heightened Def Con from 8.58887e-08 +++++++++++++++++++++++++++to 8.59863e-08
Heightened Def Con from 8.59863e-08 +++++++++++++++++++++++++++to 8.6084e-08
Heightened Def Con from 8.6084e-08 +++++++++++++++++++++++++++to 8.61817e-08
Heightened Def Con from 8.61817e-08 +++++++++++++++++++++++++++to 8.62793e-08
Heightened Def Con from 8.62793e-08 +++++++++++++++++++++++++++to 8.6377e-08
Heightened Def Con from 8.6377e-08 +++++++++++++++++++++++++++to 8.64746e-08
Heightened Def Con from 8.64746e-08 +++++++++++++++++++++++++++to 8.65723e-08
Heightened Def Con from 8.65723e-08 +++++++++++++++++++++++++++to 8.66699e-08
Heightened Def Con from 8.66699e-08 +++++++++++++++++++++++++++to 8.67676e-08
Heightened Def Con from 8.67676e-08 +++++++++++++++++++++++++++to 8.68653e-08
Heightened Def Con from 8.68653e-08 +++++++++++++++++++++++++++to 8.69629e-08
Heightened Def Con from 8.69629e-08 +++++++++++++++++++++++++++to 8.70606e-08
Heightened Def Con from 8.70606e-08 +++++++++++++++++++++++++++to 8.71582e-08
Heightened Def Con from 8.71582e-08 +++++++++++++++++++++++++++to 8.72559e-08
Heightened Def Con from 8.72559e-08 +++++++++++++++++++++++++++to 8.73535e-08
Heightened Def Con from 8.73535e-08 +++++++++++++++++++++++++++to 8.74512e-08
Heightened Def Con from 8.74512e-08 +++++++++++++++++++++++++++to 8.75488e-08
Heightened Def Con from 8.75488e-08 +++++++++++++++++++++++++++to 8.76465e-08
Heightened Def Con from 8.76465e-08 +++++++++++++++++++++++++++to 8.77442e-08
Heightened Def Con from 8.77442e-08 +++++++++++++++++++++++++++to 8.78418e-08
Heightened Def Con from 8.78418e-08 +++++++++++++++++++++++++++to 8.79395e-08
Heightened Def Con from 8.79395e-08 +++++++++++++++++++++++++++to 8.80371e-08
Heightened Def Con from 8.80371e-08 +++++++++++++++++++++++++++to 8.81348e-08
Heightened Def Con from 8.81348e-08 +++++++++++++++++++++++++++to 8.82324e-08
Heightened Def Con from 8.82324e-08 +++++++++++++++++++++++++++to 8.83301e-08
Heightened Def Con from 8.83301e-08 +++++++++++++++++++++++++++to 8.84278e-08
Heightened Def Con from 8.84278e-08 +++++++++++++++++++++++++++to 8.85254e-08
Heightened Def Con from 8.85254e-08 +++++++++++++++++++++++++++to 8.86231e-08
Heightened Def Con from 8.86231e-08 +++++++++++++++++++++++++++to 8.87207e-08
Heightened Def Con from 8.87207e-08 +++++++++++++++++++++++++++to 8.88184e-08
Heightened Def Con from 8.88184e-08 +++++++++++++++++++++++++++to 8.8916e-08
Heightened Def Con from 8.8916e-08 +++++++++++++++++++++++++++to 8.90137e-08
Heightened Def Con from 8.90137e-08 +++++++++++++++++++++++++++to 8.91113e-08
Heightened Def Con from 8.91113e-08 +++++++++++++++++++++++++++to 8.9209e-08
Heightened Def Con from 8.9209e-08 +++++++++++++++++++++++++++to 8.93067e-08
Heightened Def Con from 8.93067e-08 +++++++++++++++++++++++++++to 8.94043e-08
Heightened Def Con from 8.94043e-08 +++++++++++++++++++++++++++to 8.9502e-08
Heightened Def Con from 8.9502e-08 +++++++++++++++++++++++++++to 8.95996e-08
Heightened Def Con from 8.95996e-08 +++++++++++++++++++++++++++to 8.96973e-08
Heightened Def Con from 8.96973e-08 +++++++++++++++++++++++++++to 8.97949e-08
Heightened Def Con from 8.97949e-08 +++++++++++++++++++++++++++to 8.98926e-08
Heightened Def Con from 8.98926e-08 +++++++++++++++++++++++++++to 8.99903e-08
Heightened Def Con from 8.99903e-08 +++++++++++++++++++++++++++to 9.00879e-08
Heightened Def Con from 9.00879e-08 +++++++++++++++++++++++++++to 9.01856e-08
Heightened Def Con from 9.01856e-08 +++++++++++++++++++++++++++to 9.02832e-08
Heightened Def Con from 9.02832e-08 +++++++++++++++++++++++++++to 9.03809e-08
Heightened Def Con from 9.03809e-08 +++++++++++++++++++++++++++to 9.04785e-08
Heightened Def Con from 9.04785e-08 +++++++++++++++++++++++++++to 9.05762e-08
Heightened Def Con from 9.05762e-08 +++++++++++++++++++++++++++to 9.06738e-08
Heightened Def Con from 9.06738e-08 +++++++++++++++++++++++++++to 9.07715e-08
Heightened Def Con from 9.07715e-08 +++++++++++++++++++++++++++to 9.08692e-08
Heightened Def Con from 9.08692e-08 +++++++++++++++++++++++++++to 9.09668e-08
Heightened Def Con from 9.09668e-08 +++++++++++++++++++++++++++to 9.10645e-08
Heightened Def Con from 9.10645e-08 +++++++++++++++++++++++++++to 9.11621e-08
Heightened Def Con from 9.11621e-08 +++++++++++++++++++++++++++to 9.12598e-08
Heightened Def Con from 9.12598e-08 +++++++++++++++++++++++++++to 9.13574e-08
Heightened Def Con from 9.13574e-08 +++++++++++++++++++++++++++to 9.14551e-08
Heightened Def Con from 9.14551e-08 +++++++++++++++++++++++++++to 9.15528e-08
Heightened Def Con from 9.15528e-08 +++++++++++++++++++++++++++to 9.16504e-08
Heightened Def Con from 9.16504e-08 +++++++++++++++++++++++++++to 9.17481e-08
Heightened Def Con from 9.17481e-08 +++++++++++++++++++++++++++to 9.18457e-08
Heightened Def Con from 9.18457e-08 +++++++++++++++++++++++++++to 9.19434e-08
Heightened Def Con from 9.19434e-08 +++++++++++++++++++++++++++to 9.2041e-08
Heightened Def Con from 9.2041e-08 +++++++++++++++++++++++++++to 9.21387e-08
Heightened Def Con from 9.21387e-08 +++++++++++++++++++++++++++to 9.22363e-08
Heightened Def Con from 9.22363e-08 +++++++++++++++++++++++++++to 9.2334e-08
Heightened Def Con from 9.2334e-08 +++++++++++++++++++++++++++to 9.24317e-08
Heightened Def Con from 9.24317e-08 +++++++++++++++++++++++++++to 9.25293e-08
Heightened Def Con from 9.25293e-08 +++++++++++++++++++++++++++to 9.2627e-08
Heightened Def Con from 9.2627e-08 +++++++++++++++++++++++++++to 9.27246e-08
Heightened Def Con from 9.27246e-08 +++++++++++++++++++++++++++to 9.28223e-08
Heightened Def Con from 9.28223e-08 +++++++++++++++++++++++++++to 9.29199e-08
Heightened Def Con from 9.29199e-08 +++++++++++++++++++++++++++to 9.30176e-08
Heightened Def Con from 9.30176e-08 +++++++++++++++++++++++++++to 9.31153e-08
Heightened Def Con from 9.31153e-08 +++++++++++++++++++++++++++to 9.32129e-08
Heightened Def Con from 9.32129e-08 +++++++++++++++++++++++++++to 9.33106e-08
Heightened Def Con from 9.33106e-08 +++++++++++++++++++++++++++to 9.34082e-08
Heightened Def Con from 9.34082e-08 +++++++++++++++++++++++++++to 9.35059e-08
Heightened Def Con from 9.35059e-08 +++++++++++++++++++++++++++to 9.36035e-08
Heightened Def Con from 9.36035e-08 +++++++++++++++++++++++++++to 9.37012e-08
Heightened Def Con from 9.37012e-08 +++++++++++++++++++++++++++to 9.37988e-08
Heightened Def Con from 9.37988e-08 +++++++++++++++++++++++++++to 9.38965e-08
Heightened Def Con from 9.38965e-08 +++++++++++++++++++++++++++to 9.39942e-08
Heightened Def Con from 9.39942e-08 +++++++++++++++++++++++++++to 9.40918e-08
Heightened Def Con from 9.40918e-08 +++++++++++++++++++++++++++to 9.41895e-08
Heightened Def Con from 9.41895e-08 +++++++++++++++++++++++++++to 9.42871e-08
Heightened Def Con from 9.42871e-08 +++++++++++++++++++++++++++to 9.43848e-08
Heightened Def Con from 9.43848e-08 +++++++++++++++++++++++++++to 9.44824e-08
Heightened Def Con from 9.44824e-08 +++++++++++++++++++++++++++to 9.45801e-08
Heightened Def Con from 9.45801e-08 +++++++++++++++++++++++++++to 9.46778e-08
Heightened Def Con from 9.46778e-08 +++++++++++++++++++++++++++to 9.47754e-08
Heightened Def Con from 9.47754e-08 +++++++++++++++++++++++++++to 9.48731e-08
Heightened Def Con from 9.48731e-08 +++++++++++++++++++++++++++to 9.49707e-08
Heightened Def Con from 9.49707e-08 +++++++++++++++++++++++++++to 9.50684e-08
Heightened Def Con from 9.50684e-08 +++++++++++++++++++++++++++to 9.5166e-08
Heightened Def Con from 9.5166e-08 +++++++++++++++++++++++++++to 9.52637e-08
Heightened Def Con from 9.52637e-08 +++++++++++++++++++++++++++to 9.53613e-08
Heightened Def Con from 9.53613e-08 +++++++++++++++++++++++++++to 9.5459e-08
Heightened Def Con from 9.5459e-08 +++++++++++++++++++++++++++to 9.55567e-08
Heightened Def Con from 9.55567e-08 +++++++++++++++++++++++++++to 9.56543e-08
Heightened Def Con from 9.56543e-08 +++++++++++++++++++++++++++to 9.5752e-08
Heightened Def Con from 9.5752e-08 +++++++++++++++++++++++++++to 9.58496e-08
Heightened Def Con from 9.58496e-08 +++++++++++++++++++++++++++to 9.59473e-08
Heightened Def Con from 9.59473e-08 +++++++++++++++++++++++++++to 9.60449e-08
Heightened Def Con from 9.60449e-08 +++++++++++++++++++++++++++to 9.61426e-08
Heightened Def Con from 9.61426e-08 +++++++++++++++++++++++++++to 9.62403e-08
Heightened Def Con from 9.62403e-08 +++++++++++++++++++++++++++to 9.63379e-08
Heightened Def Con from 9.63379e-08 +++++++++++++++++++++++++++to 9.64356e-08
Heightened Def Con from 9.64356e-08 +++++++++++++++++++++++++++to 9.65332e-08
Heightened Def Con from 9.65332e-08 +++++++++++++++++++++++++++to 9.66309e-08
Heightened Def Con from 9.66309e-08 +++++++++++++++++++++++++++to 9.67285e-08
Heightened Def Con from 9.67285e-08 +++++++++++++++++++++++++++to 9.68262e-08
Heightened Def Con from 9.68262e-08 +++++++++++++++++++++++++++to 9.69238e-08
Heightened Def Con from 9.69238e-08 +++++++++++++++++++++++++++to 9.70215e-08
Heightened Def Con from 9.70215e-08 +++++++++++++++++++++++++++to 9.71192e-08
Heightened Def Con from 9.71192e-08 +++++++++++++++++++++++++++to 9.72168e-08
Heightened Def Con from 9.72168e-08 +++++++++++++++++++++++++++to 9.73145e-08
Heightened Def Con from 9.73145e-08 +++++++++++++++++++++++++++to 9.74121e-08
Heightened Def Con from 9.74121e-08 +++++++++++++++++++++++++++to 9.75098e-08
Heightened Def Con from 9.75098e-08 +++++++++++++++++++++++++++to 9.76074e-08
Heightened Def Con from 9.76074e-08 +++++++++++++++++++++++++++to 9.77051e-08
Heightened Def Con from 9.77051e-08 +++++++++++++++++++++++++++to 9.78028e-08
Heightened Def Con from 9.78028e-08 +++++++++++++++++++++++++++to 9.79004e-08
Heightened Def Con from 9.79004e-08 +++++++++++++++++++++++++++to 9.79981e-08
Heightened Def Con from 9.79981e-08 +++++++++++++++++++++++++++to 9.80957e-08
Heightened Def Con from 9.80957e-08 +++++++++++++++++++++++++++to 9.81934e-08
Heightened Def Con from 9.81934e-08 +++++++++++++++++++++++++++to 9.8291e-08
Heightened Def Con from 9.8291e-08 +++++++++++++++++++++++++++to 9.83887e-08
Heightened Def Con from 9.83887e-08 +++++++++++++++++++++++++++to 9.84863e-08
Heightened Def Con from 9.84863e-08 +++++++++++++++++++++++++++to 9.8584e-08
Heightened Def Con from 9.8584e-08 +++++++++++++++++++++++++++to 9.86817e-08
Heightened Def Con from 9.86817e-08 +++++++++++++++++++++++++++to 9.87793e-08
Heightened Def Con from 9.87793e-08 +++++++++++++++++++++++++++to 9.8877e-08
Heightened Def Con from 9.8877e-08 +++++++++++++++++++++++++++to 9.89746e-08
Heightened Def Con from 9.89746e-08 +++++++++++++++++++++++++++to 9.90723e-08
Heightened Def Con from 9.90723e-08 +++++++++++++++++++++++++++to 9.91699e-08
Heightened Def Con from 9.91699e-08 +++++++++++++++++++++++++++to 9.92676e-08
Heightened Def Con from 9.92676e-08 +++++++++++++++++++++++++++to 9.93653e-08
Heightened Def Con from 9.93653e-08 +++++++++++++++++++++++++++to 9.94629e-08
Heightened Def Con from 9.94629e-08 +++++++++++++++++++++++++++to 9.95606e-08
Heightened Def Con from 9.95606e-08 +++++++++++++++++++++++++++to 9.96582e-08
Heightened Def Con from 9.96582e-08 +++++++++++++++++++++++++++to 9.97559e-08
Heightened Def Con from 9.97559e-08 +++++++++++++++++++++++++++to 9.98535e-08
Heightened Def Con from 9.98535e-08 +++++++++++++++++++++++++++to 9.99512e-08
Heightened Def Con from 9.99512e-08 +++++++++++++++++++++++++++to 1e-07

Date: Mon Oct 23 10:34:21 2023
Total elapsed time: 27.360 seconds.

tnom = 27
temp = 27
method = modified trap
totiter = 3247797
traniter = 3247773
tranpoints = 296054
accept = 27900
rejected = 294965
matrix size = 31
fillins = 31
solver = Normal
Avg thread counts: 1.0/2.3/1.2/1.0
Matrix Compiler1: 5.10 KB object code size  3.4/1.6/[1.3]
Matrix Compiler2: 3.70 KB object code size  1.4/2.0/[0.7]

