Circuit: * D:\Documents\GitHub\VLSI_LTSPICE_STUFF\Report\SirsnoteRAM.asc

WARNING: Specified period is not longer than the sum of Trise, Tfall, and Ton for v2.  Increasing period to 1e-07
Limiting rise time of source v2 to 1.98523e-23
Limiting fall time of source v2 to 1.98523e-23
WARNING: Node N010 is floating.
WARNING: Node N001 is floating.
WARNING: Node N007 is floating.
WARNING: Node N009 is floating.
WARNING: Node WL is floating.
WARNING: Node N014 is floating.
WARNING: Node N018 is floating.
WARNING: Node N019 is floating.
WARNING: Node N021 is floating.
WARNING: Node N011 is floating.
WARNING: Node N016 is floating.
WARNING: Node N012 is floating.
WARNING: Node N017 is floating.
WARNING: Node N004 is floating.
WARNING: Node N008 is floating.

Model "testn": Oxide thickness thinner than recommended for a level 1 MOSFET.
Instance "m1": Length shorter than recommended for a level 1 MOSFET.
Instance "m3": Length shorter than recommended for a level 1 MOSFET.
Instance "m5": Length shorter than recommended for a level 1 MOSFET.
Instance "m6": Length shorter than recommended for a level 1 MOSFET.
Instance "m10": Length shorter than recommended for a level 1 MOSFET.
Instance "m13": Length shorter than recommended for a level 1 MOSFET.
Instance "m14": Length shorter than recommended for a level 1 MOSFET.
Instance "m16": Length shorter than recommended for a level 1 MOSFET.
Instance "m19": Length shorter than recommended for a level 1 MOSFET.
Instance "m20": Length shorter than recommended for a level 1 MOSFET.
Instance "m22": Length shorter than recommended for a level 1 MOSFET.
Instance "m23": Length shorter than recommended for a level 1 MOSFET.
Instance "m24": Length shorter than recommended for a level 1 MOSFET.
Instance "m28": Length shorter than recommended for a level 1 MOSFET.
Instance "m29": Length shorter than recommended for a level 1 MOSFET.
Instance "m30": Length shorter than recommended for a level 1 MOSFET.
Instance "m34": Length shorter than recommended for a level 1 MOSFET.
Model "testp": Oxide thickness thinner than recommended for a level 1 MOSFET.
Instance "m2": Length shorter than recommended for a level 1 MOSFET.
Instance "m4": Length shorter than recommended for a level 1 MOSFET.
Instance "m7": Length shorter than recommended for a level 1 MOSFET.
Instance "m8": Length shorter than recommended for a level 1 MOSFET.
Instance "m9": Length shorter than recommended for a level 1 MOSFET.
Instance "m11": Length shorter than recommended for a level 1 MOSFET.
Instance "m12": Length shorter than recommended for a level 1 MOSFET.
Instance "m15": Length shorter than recommended for a level 1 MOSFET.
Instance "m17": Length shorter than recommended for a level 1 MOSFET.
Instance "m18": Length shorter than recommended for a level 1 MOSFET.
Instance "m21": Length shorter than recommended for a level 1 MOSFET.
Instance "m25": Length shorter than recommended for a level 1 MOSFET.
Instance "m26": Length shorter than recommended for a level 1 MOSFET.
Instance "m27": Length shorter than recommended for a level 1 MOSFET.
Instance "m31": Length shorter than recommended for a level 1 MOSFET.
Instance "m32": Length shorter than recommended for a level 1 MOSFET.
Instance "m33": Length shorter than recommended for a level 1 MOSFET.
Direct Newton iteration for .op point succeeded.
Changing Tseed to 9.76562e-15
Heightened Def Con from 1e-09 ++++++++++++++++++++++++++++++++++to 1.00977e-09
Heightened Def Con from 1.00977e-09 ++++++++++++++++++++++++++++++to 1.10002e-09
Heightened Def Con from 1.10002e-09 ++++++++++++++++++++++++++++++to 1.49064e-09
Heightened Def Con from 1.49064e-09 to 1.50285e-09
Heightened Def Con from 3.1e-09 ++++++++++++++++++++++++++++++to 3.19768e-09
Heightened Def Con from 3.19768e-09 ++++++++++++++++++++++++++++++to 3.68596e-09
Heightened Def Con from 3.68596e-09 to 3.69817e-09
Heightened Def Con from 6e-09 +++++++++++++++++++++++++++++++to 6.58594e-09
Heightened Def Con from 6.58594e-09 +++++++++++++++++++++++to 6.59814e-09
Heightened Def Con from 8.1e-09 +++++++++++++++++++++++++++++++to 8.68594e-09
Heightened Def Con from 8.68594e-09 +++++++++++++++++++++++++++++to 8.88125e-09
Heightened Def Con from 1e-08 ++++++++++++++++++++++++++++++++++to 1.00098e-08
Heightened Def Con from 1.00098e-08 +++++++++++++++++++to 1.0022e-08
Heightened Def Con from 1.1e-08 ++++++++++++++++++++++++++++++to 1.10977e-08
Heightened Def Con from 1.10977e-08 ++++++++++++++++++++++++++++to 1.10981e-08
Heightened Def Con from 1.10981e-08 ++++++++++++++++++++++++++++to 1.10984e-08
Heightened Def Con from 1.10984e-08 ++++++++++++++++++++++++++++to 1.10988e-08
Heightened Def Con from 1.10988e-08 ++++++++++++++++++++++++++++to 1.10992e-08
Heightened Def Con from 1.10992e-08 ++++++++++++++++++++++++++++to 1.10992e-08
Heightened Def Con from 1.10992e-08 ++++++++++++++++++++++++++++to 1.10992e-08
Heightened Def Con from 1.10992e-08 +++++++++++++++++++++++++++++to 1.10996e-08
Heightened Def Con from 1.10996e-08 +++++++++++++++++++++++++++++to 1.11013e-08
Heightened Def Con from 1.11013e-08 +++++++++++++++++++++++++++++to 1.11015e-08
Heightened Def Con from 1.11015e-08 +++++++++++++++++++++++++++++to 1.11017e-08
Heightened Def Con from 1.11017e-08 +++++++++++++++++++++++++++++to 1.11019e-08
Heightened Def Con from 1.11019e-08 +++++++++++++++++++++++++++++to 1.11021e-08
Heightened Def Con from 1.11021e-08 +++++++++++++++++++++++++++++to 1.11023e-08
Heightened Def Con from 1.11023e-08 +++++++++++++++++++++++++++++to 1.11024e-08
Heightened Def Con from 1.11024e-08 +++++++++++++++++++++++++++++to 1.11026e-08
Heightened Def Con from 1.11026e-08 +++++++++++++++++++++++++++++to 1.11028e-08
Heightened Def Con from 1.11028e-08 +++++++++++++++++++++++++++++to 1.1103e-08
Heightened Def Con from 1.1103e-08 +++++++++++++++++++++++++++++to 1.11032e-08
Heightened Def Con from 1.11032e-08 +++++++++++++++++++++++++++++to 1.11034e-08
Heightened Def Con from 1.11034e-08 +++++++++++++++++++++++++++++to 1.11036e-08
Heightened Def Con from 1.11036e-08 +++++++++++++++++++++++++++++to 1.11038e-08
Heightened Def Con from 1.11038e-08 +++++++++++++++++++++++++++++to 1.1104e-08
Heightened Def Con from 1.1104e-08 +++++++++++++++++++++++++++++to 1.11042e-08
Heightened Def Con from 1.11042e-08 +++++++++++++++++++++++++++++to 1.11044e-08
Heightened Def Con from 1.11044e-08 +++++++++++++++++++++++++++++to 1.11045e-08
Heightened Def Con from 1.11045e-08 +++++++++++++++++++++++++++++to 1.11047e-08
Heightened Def Con from 1.11047e-08 +++++++++++++++++++++++++++++to 1.11049e-08
Heightened Def Con from 1.11049e-08 +++++++++++++++++++++++++++++to 1.11051e-08
Heightened Def Con from 1.11051e-08 +++++++++++++++++++++++++++++to 1.11053e-08
Heightened Def Con from 1.11053e-08 +++++++++++++++++++++++++++++to 1.11055e-08
Heightened Def Con from 1.11055e-08 +++++++++++++++++++++++++++++to 1.11057e-08
Heightened Def Con from 1.11057e-08 +++++++++++++++++++++++++++++to 1.11059e-08
Heightened Def Con from 1.11059e-08 +++++++++++++++++++++++++++++to 1.11061e-08
Heightened Def Con from 1.11061e-08 +++++++++++++++++++++++++++++to 1.11063e-08
Heightened Def Con from 1.11063e-08 +++++++++++++++++++++++++++++to 1.11065e-08
Heightened Def Con from 1.11065e-08 +++++++++++++++++++++++++++++to 1.11066e-08
Heightened Def Con from 1.11066e-08 +++++++++++++++++++++++++++++to 1.11068e-08
Heightened Def Con from 1.11068e-08 +++++++++++++++++++++++++++++to 1.1107e-08
Heightened Def Con from 1.1107e-08 +++++++++++++++++++++++++++++to 1.11072e-08
Heightened Def Con from 1.11072e-08 +++++++++++++++++++++++++++++to 1.11074e-08
Heightened Def Con from 1.11074e-08 +++++++++++++++++++++++++++++to 1.11076e-08
Heightened Def Con from 1.11076e-08 +++++++++++++++++++++++++++++to 1.11078e-08
Heightened Def Con from 1.11078e-08 +++++++++++++++++++++++++++++to 1.1108e-08
Heightened Def Con from 1.1108e-08 +++++++++++++++++++++++++++++to 1.11082e-08
Heightened Def Con from 1.11082e-08 +++++++++++++++++++++++++++++to 1.11084e-08
Heightened Def Con from 1.11084e-08 +++++++++++++++++++++++++++++to 1.11086e-08
Heightened Def Con from 1.11086e-08 +++++++++++++++++++++++++++++to 1.11087e-08
Heightened Def Con from 1.11087e-08 +++++++++++++++++++++++++++++to 1.11089e-08
Heightened Def Con from 1.11089e-08 +++++++++++++++++++++++++++++to 1.11091e-08
Heightened Def Con from 1.11091e-08 +++++++++++++++++++++++++++++to 1.11093e-08
Heightened Def Con from 1.11093e-08 +++++++++++++++++++++++++++++to 1.11095e-08
Heightened Def Con from 1.11095e-08 +++++++++++++++++++++++++++++to 1.11097e-08
Heightened Def Con from 1.11097e-08 +++++++++++++++++++++++++++++to 1.11099e-08
Heightened Def Con from 1.11099e-08 +++++++++++++++++++++++++++++to 1.11101e-08
Heightened Def Con from 1.11101e-08 +++++++++++++++++++++++++++++to 1.11103e-08
Heightened Def Con from 1.11103e-08 +++++++++++++++++++++++++++++to 1.11105e-08
Heightened Def Con from 1.11105e-08 +++++++++++++++++++++++++++++to 1.11107e-08
Heightened Def Con from 1.11107e-08 +++++++++++++++++++++++++++++to 1.11108e-08
Heightened Def Con from 1.11108e-08 +++++++++++++++++++++++++++++to 1.1111e-08
Heightened Def Con from 1.1111e-08 +++++++++++++++++++++++++++++to 1.11112e-08
Heightened Def Con from 1.11112e-08 +++++++++++++++++++++++++++++to 1.11114e-08
Heightened Def Con from 1.11114e-08 +++++++++++++++++++++++++++++to 1.11116e-08
Heightened Def Con from 1.11116e-08 +++++++++++++++++++++++++++++to 1.11118e-08
Heightened Def Con from 1.11118e-08 +++++++++++++++++++++++++++++to 1.1112e-08
Heightened Def Con from 1.1112e-08 +++++++++++++++++++++++++++++to 1.11122e-08
Heightened Def Con from 1.11122e-08 +++++++++++++++++++++++++++++to 1.11124e-08
Heightened Def Con from 1.11124e-08 +++++++++++++++++++++++++++++to 1.11126e-08
Heightened Def Con from 1.11126e-08 +++++++++++++++++++++++++++++to 1.11127e-08
Heightened Def Con from 1.11127e-08 +++++++++++++++++++++++++++++to 1.11129e-08
Heightened Def Con from 1.11129e-08 +++++++++++++++++++++++++++++to 1.11131e-08
Heightened Def Con from 1.11131e-08 +++++++++++++++++++++++++++++to 1.11133e-08
Heightened Def Con from 1.11133e-08 +++++++++++++++++++++++++++++to 1.11135e-08
Heightened Def Con from 1.11135e-08 +++++++++++++++++++++++++++++to 1.11137e-08
Heightened Def Con from 1.11137e-08 +++++++++++++++++++++++++++++to 1.11139e-08
Heightened Def Con from 1.11139e-08 +++++++++++++++++++++++++++++to 1.11141e-08
Heightened Def Con from 1.11141e-08 +++++++++++++++++++++++++++++to 1.11143e-08
Heightened Def Con from 1.11143e-08 +++++++++++++++++++++++++++++to 1.11145e-08
Heightened Def Con from 1.11145e-08 +++++++++++++++++++++++++++++to 1.11147e-08
Heightened Def Con from 1.11147e-08 +++++++++++++++++++++++++++++to 1.11148e-08
Heightened Def Con from 1.11148e-08 +++++++++++++++++++++++++++++to 1.1115e-08
Heightened Def Con from 1.1115e-08 +++++++++++++++++++++++++++++to 1.11152e-08
Heightened Def Con from 1.11152e-08 +++++++++++++++++++++++++++++to 1.11154e-08
Heightened Def Con from 1.11154e-08 +++++++++++++++++++++++++++++to 1.11156e-08
Heightened Def Con from 1.11156e-08 +++++++++++++++++++++++++++++to 1.11158e-08
Heightened Def Con from 1.11158e-08 +++++++++++++++++++++++++++++to 1.1116e-08
Heightened Def Con from 1.1116e-08 +++++++++++++++++++++++++++++to 1.11162e-08
Heightened Def Con from 1.11162e-08 +++++++++++++++++++++++++++++to 1.11164e-08
Heightened Def Con from 1.11164e-08 +++++++++++++++++++++++++++++to 1.11166e-08
Heightened Def Con from 1.11166e-08 +++++++++++++++++++++++++++++to 1.11168e-08
Heightened Def Con from 1.11168e-08 +++++++++++++++++++++++++++++to 1.11169e-08
Heightened Def Con from 1.11169e-08 +++++++++++++++++++++++++++++to 1.11171e-08
Heightened Def Con from 1.11171e-08 +++++++++++++++++++++++++++++to 1.11173e-08
Heightened Def Con from 1.11173e-08 +++++++++++++++++++++++++++++to 1.11175e-08
Heightened Def Con from 1.11175e-08 +++++++++++++++++++++++++++++to 1.11177e-08
Heightened Def Con from 1.11177e-08 +++++++++++++++++++++++++++++to 1.11179e-08
Heightened Def Con from 1.11179e-08 +++++++++++++++++++++++++++++to 1.11181e-08
Heightened Def Con from 1.11181e-08 +++++++++++++++++++++++++++++to 1.11183e-08
Heightened Def Con from 1.11183e-08 +++++++++++++++++++++++++++++to 1.11185e-08
Heightened Def Con from 1.11185e-08 +++++++++++++++++++++++++++++to 1.11187e-08
Heightened Def Con from 1.11187e-08 +++++++++++++++++++++++++++++to 1.11189e-08
Heightened Def Con from 1.11189e-08 +++++++++++++++++++++++++++++to 1.1119e-08
Heightened Def Con from 1.1119e-08 +++++++++++++++++++++++++++++to 1.11192e-08
Heightened Def Con from 1.11192e-08 +++++++++++++++++++++++++++++to 1.11194e-08
Heightened Def Con from 1.11194e-08 +++++++++++++++++++++++++++++to 1.11196e-08
Heightened Def Con from 1.11196e-08 +++++++++++++++++++++++++++++to 1.11198e-08
Heightened Def Con from 1.11198e-08 +++++++++++++++++++++++++++++to 1.112e-08
Heightened Def Con from 1.112e-08 +++++++++++++++++++++++++++++to 1.11202e-08
Heightened Def Con from 1.11202e-08 +++++++++++++++++++++++++++++to 1.11204e-08
Heightened Def Con from 1.11204e-08 +++++++++++++++++++++++++++++to 1.11206e-08
Heightened Def Con from 1.11206e-08 +++++++++++++++++++++++++++++to 1.11208e-08
Heightened Def Con from 1.11208e-08 +++++++++++++++++++++++++++++to 1.11209e-08
Heightened Def Con from 1.11209e-08 +++++++++++++++++++++++++++++to 1.11211e-08
Heightened Def Con from 1.11211e-08 +++++++++++++++++++++++++++++to 1.11213e-08
Heightened Def Con from 1.11213e-08 +++++++++++++++++++++++++++++to 1.11215e-08
Heightened Def Con from 1.11215e-08 +++++++++++++++++++++++++++++to 1.11217e-08
Heightened Def Con from 1.11217e-08 +++++++++++++++++++++++++++++to 1.11219e-08
Heightened Def Con from 1.11219e-08 +++++++++++++++++++++++++++++to 1.11221e-08
Heightened Def Con from 1.11221e-08 +++++++++++++++++++++++++++++to 1.11223e-08
Heightened Def Con from 1.11223e-08 +++++++++++++++++++++++++++++to 1.11225e-08
Heightened Def Con from 1.11225e-08 +++++++++++++++++++++++++++++to 1.11227e-08
Heightened Def Con from 1.11227e-08 +++++++++++++++++++++++++++++to 1.11229e-08
Heightened Def Con from 1.11229e-08 +++++++++++++++++++++++++++++to 1.1123e-08
Heightened Def Con from 1.1123e-08 +++++++++++++++++++++++++++++to 1.11232e-08
Heightened Def Con from 1.11232e-08 +++++++++++++++++++++++++++++to 1.11234e-08
Heightened Def Con from 1.11234e-08 +++++++++++++++++++++++++++++to 1.11236e-08
Heightened Def Con from 1.11236e-08 +++++++++++++++++++++++++++++to 1.11238e-08
Heightened Def Con from 1.11238e-08 +++++++++++++++++++++++++++++to 1.1124e-08
Heightened Def Con from 1.1124e-08 +++++++++++++++++++++++++++++to 1.11242e-08
Heightened Def Con from 1.11242e-08 +++++++++++++++++++++++++++++to 1.11244e-08
Heightened Def Con from 1.11244e-08 +++++++++++++++++++++++++++++to 1.11246e-08
Heightened Def Con from 1.11246e-08 +++++++++++++++++++++++++++++to 1.11248e-08
Heightened Def Con from 1.11248e-08 +++++++++++++++++++++++++++++to 1.1125e-08
Heightened Def Con from 1.1125e-08 +++++++++++++++++++++++++++++to 1.11251e-08
Heightened Def Con from 1.11251e-08 +++++++++++++++++++++++++++++to 1.11253e-08
Heightened Def Con from 1.11253e-08 +++++++++++++++++++++++++++++to 1.11255e-08
Heightened Def Con from 1.11255e-08 +++++++++++++++++++++++++++++to 1.11257e-08
Heightened Def Con from 1.11257e-08 +++++++++++++++++++++++++++++to 1.11259e-08
Heightened Def Con from 1.11259e-08 +++++++++++++++++++++++++++++to 1.11261e-08
Heightened Def Con from 1.11261e-08 +++++++++++++++++++++++++++++to 1.11263e-08
Heightened Def Con from 1.11263e-08 +++++++++++++++++++++++++++++to 1.11265e-08
Heightened Def Con from 1.11265e-08 +++++++++++++++++++++++++++++to 1.11267e-08
Heightened Def Con from 1.11267e-08 +++++++++++++++++++++++++++++to 1.11269e-08
Heightened Def Con from 1.11269e-08 +++++++++++++++++++++++++++++to 1.11271e-08
Heightened Def Con from 1.11271e-08 +++++++++++++++++++++++++++++to 1.11272e-08
Heightened Def Con from 1.11272e-08 +++++++++++++++++++++++++++++to 1.11274e-08
Heightened Def Con from 1.11274e-08 +++++++++++++++++++++++++++++to 1.11276e-08
Heightened Def Con from 1.11276e-08 +++++++++++++++++++++++++++++to 1.11278e-08
Heightened Def Con from 1.11278e-08 +++++++++++++++++++++++++++++to 1.1128e-08
Heightened Def Con from 1.1128e-08 +++++++++++++++++++++++++++++to 1.11282e-08
Heightened Def Con from 1.11282e-08 +++++++++++++++++++++++++++++to 1.11284e-08
Heightened Def Con from 1.11284e-08 +++++++++++++++++++++++++++++to 1.11286e-08
Heightened Def Con from 1.11286e-08 +++++++++++++++++++++++++++++to 1.11288e-08
Heightened Def Con from 1.11288e-08 +++++++++++++++++++++++++++++to 1.1129e-08
Heightened Def Con from 1.1129e-08 +++++++++++++++++++++++++++++to 1.11292e-08
Heightened Def Con from 1.11292e-08 +++++++++++++++++++++++++++++to 1.11293e-08
Heightened Def Con from 1.11293e-08 +++++++++++++++++++++++++++++to 1.11295e-08
Heightened Def Con from 1.11295e-08 +++++++++++++++++++++++++++++to 1.11297e-08
Heightened Def Con from 1.11297e-08 +++++++++++++++++++++++++++++to 1.11299e-08
Heightened Def Con from 1.11299e-08 +++++++++++++++++++++++++++++to 1.11301e-08
Heightened Def Con from 1.11301e-08 +++++++++++++++++++++++++++++to 1.11303e-08
Heightened Def Con from 1.11303e-08 +++++++++++++++++++++++++++++to 1.11305e-08
Heightened Def Con from 1.11305e-08 +++++++++++++++++++++++++++++to 1.11307e-08
Heightened Def Con from 1.11307e-08 +++++++++++++++++++++++++++++to 1.11309e-08
Heightened Def Con from 1.11309e-08 +++++++++++++++++++++++++++++to 1.11311e-08
Heightened Def Con from 1.11311e-08 +++++++++++++++++++++++++++++to 1.11312e-08
Heightened Def Con from 1.11312e-08 +++++++++++++++++++++++++++++to 1.11314e-08
Heightened Def Con from 1.11314e-08 +++++++++++++++++++++++++++++to 1.11316e-08
Heightened Def Con from 1.11316e-08 +++++++++++++++++++++++++++++to 1.11318e-08
Heightened Def Con from 1.11318e-08 +++++++++++++++++++++++++++++to 1.1132e-08
Heightened Def Con from 1.1132e-08 +++++++++++++++++++++++++++++to 1.11322e-08
Heightened Def Con from 1.11322e-08 +++++++++++++++++++++++++++++to 1.11324e-08
Heightened Def Con from 1.11324e-08 +++++++++++++++++++++++++++++to 1.11326e-08
Heightened Def Con from 1.11326e-08 +++++++++++++++++++++++++++++to 1.11328e-08
Heightened Def Con from 1.11328e-08 +++++++++++++++++++++++++++++to 1.1133e-08
Heightened Def Con from 1.1133e-08 +++++++++++++++++++++++++++++to 1.11332e-08
Heightened Def Con from 1.11332e-08 +++++++++++++++++++++++++++++to 1.11333e-08
Heightened Def Con from 1.11333e-08 +++++++++++++++++++++++++++++to 1.11335e-08
Heightened Def Con from 1.11335e-08 +++++++++++++++++++++++++++++to 1.11337e-08
Heightened Def Con from 1.11337e-08 +++++++++++++++++++++++++++++to 1.11339e-08
Heightened Def Con from 1.11339e-08 +++++++++++++++++++++++++++++to 1.11341e-08
Heightened Def Con from 1.11341e-08 +++++++++++++++++++++++++++++to 1.11343e-08
Heightened Def Con from 1.11343e-08 +++++++++++++++++++++++++++++to 1.11345e-08
Heightened Def Con from 1.11345e-08 +++++++++++++++++++++++++++++to 1.11347e-08
Heightened Def Con from 1.11347e-08 +++++++++++++++++++++++++++++to 1.11349e-08
Heightened Def Con from 1.11349e-08 +++++++++++++++++++++++++++++to 1.11351e-08
Heightened Def Con from 1.11351e-08 +++++++++++++++++++++++++++++to 1.11353e-08
Heightened Def Con from 1.11353e-08 +++++++++++++++++++++++++++++to 1.11354e-08
Heightened Def Con from 1.11354e-08 +++++++++++++++++++++++++++++to 1.11356e-08
Heightened Def Con from 1.11356e-08 +++++++++++++++++++++++++++++to 1.11358e-08
Heightened Def Con from 1.11358e-08 +++++++++++++++++++++++++++++to 1.1136e-08
Heightened Def Con from 1.1136e-08 +++++++++++++++++++++++++++++to 1.11362e-08
Heightened Def Con from 1.11362e-08 +++++++++++++++++++++++to 1.11377e-08
Heightened Def Con from 1.31e-08 +++++++++++++++++++++++++++++++to 1.36859e-08
Heightened Def Con from 1.6e-08 +++++++++++++++++++++++++++++++to 1.65859e-08
Heightened Def Con from 1.81e-08 ++++++++++++++++++++++++++++++to 1.81977e-08
Heightened Def Con from 1.81977e-08 ++++++++++++++++++++++++++++++to 1.8686e-08
Heightened Def Con from 2.01e-08 ++++++++++++++++++++++++++++to 2.01001e-08
Heightened Def Con from 2.01001e-08 ++++++++++++++++++++++++++++to 2.01003e-08
Heightened Def Con from 2.01003e-08 ++++++++++++++++++++++++++++to 2.01005e-08
Heightened Def Con from 2.01005e-08 ++++++++++++++++++++++++++++to 2.01007e-08
Heightened Def Con from 2.01007e-08 ++++++++++++++++++++++++++++to 2.01008e-08
Heightened Def Con from 2.01008e-08 ++++++++++++++++++++++++++++to 2.0101e-08
Heightened Def Con from 2.0101e-08 ++++++++++++++++++++++++++++to 2.01012e-08
Heightened Def Con from 2.01012e-08 ++++++++++++++++++++++++++++to 2.01014e-08
Heightened Def Con from 2.01014e-08 ++++++++++++++++++++++++++++to 2.01016e-08
Heightened Def Con from 2.01016e-08 ++++++++++++++++++++++++++++to 2.01018e-08
Heightened Def Con from 2.01018e-08 ++++++++++++++++++++++++++++to 2.0102e-08
Heightened Def Con from 2.0102e-08 ++++++++++++++++++++++++++++to 2.01022e-08
Heightened Def Con from 2.01022e-08 ++++++++++++++++++++++++++++to 2.01024e-08
Heightened Def Con from 2.01024e-08 ++++++++++++++++++++++++++++to 2.01026e-08
Heightened Def Con from 2.01026e-08 ++++++++++++++++++++++++++++to 2.01027e-08
Heightened Def Con from 2.01027e-08 ++++++++++++++++++++++++++++to 2.01029e-08
Heightened Def Con from 2.01029e-08 ++++++++++++++++++++++++++++to 2.01031e-08
Heightened Def Con from 2.01031e-08 ++++++++++++++++++++++++++++to 2.01033e-08
Heightened Def Con from 2.01033e-08 ++++++++++++++++++++++++++++to 2.01035e-08
Heightened Def Con from 2.01035e-08 ++++++++++++++++++++++++++++to 2.01037e-08
Heightened Def Con from 2.01037e-08 ++++++++++++++++++++++++++++to 2.01039e-08
Heightened Def Con from 2.01039e-08 ++++++++++++++++++++++++++++to 2.01041e-08
Heightened Def Con from 2.01041e-08 ++++++++++++++++++++++++++++to 2.01043e-08
Heightened Def Con from 2.01043e-08 ++++++++++++++++++++++++++++to 2.01045e-08
Heightened Def Con from 2.01045e-08 ++++++++++++++++++++++++++++to 2.01047e-08
Heightened Def Con from 2.01047e-08 ++++++++++++++++++++++++++++to 2.01048e-08
Heightened Def Con from 2.01048e-08 ++++++++++++++++++++++++++++to 2.0105e-08
Heightened Def Con from 2.0105e-08 ++++++++++++++++++++++++++++to 2.01052e-08
Heightened Def Con from 2.01052e-08 ++++++++++++++++++++++++++++to 2.01054e-08
Heightened Def Con from 2.01054e-08 ++++++++++++++++++++++++++++to 2.01056e-08
Heightened Def Con from 2.01056e-08 ++++++++++++++++++++++++++++to 2.01058e-08
Heightened Def Con from 2.01058e-08 ++++++++++++++++++++++++++++to 2.0106e-08
Heightened Def Con from 2.0106e-08 ++++++++++++++++++++++++++++to 2.01062e-08
Heightened Def Con from 2.01062e-08 ++++++++++++++++++++++++++++to 2.01064e-08
Heightened Def Con from 2.01064e-08 ++++++++++++++++++++++++++++to 2.01066e-08
Heightened Def Con from 2.01066e-08 ++++++++++++++++++++++++++++to 2.01068e-08
Heightened Def Con from 2.01068e-08 ++++++++++++++++++++++++++++to 2.01069e-08
Heightened Def Con from 2.01069e-08 ++++++++++++++++++++++++++++to 2.01071e-08
Heightened Def Con from 2.01071e-08 ++++++++++++++++++++++++++++to 2.01073e-08
Heightened Def Con from 2.01073e-08 ++++++++++++++++++++++++++++to 2.01075e-08
Heightened Def Con from 2.01075e-08 ++++++++++++++++++++++++++++to 2.01077e-08
Heightened Def Con from 2.01077e-08 ++++++++++++++++++++++++++++to 2.01079e-08
Heightened Def Con from 2.01079e-08 ++++++++++++++++++++++++++++to 2.01081e-08
Heightened Def Con from 2.01081e-08 ++++++++++++++++++++++++++++to 2.01083e-08
Heightened Def Con from 2.01083e-08 ++++++++++++++++++++++++++++to 2.01085e-08
Heightened Def Con from 2.01085e-08 ++++++++++++++++++++++++++++to 2.01087e-08
Heightened Def Con from 2.01087e-08 ++++++++++++++++++++++++++++to 2.01089e-08
Heightened Def Con from 2.01089e-08 ++++++++++++++++++++++++++++to 2.0109e-08
Heightened Def Con from 2.0109e-08 ++++++++++++++++++++++++++++to 2.01092e-08
Heightened Def Con from 2.01092e-08 ++++++++++++++++++++++++++++to 2.01094e-08
Heightened Def Con from 2.01094e-08 ++++++++++++++++++++++++++++to 2.01096e-08
Heightened Def Con from 2.01096e-08 ++++++++++++++++++++++++++++to 2.01098e-08
Heightened Def Con from 2.01098e-08 ++++++++++++++++++++++++++++to 2.011e-08
Heightened Def Con from 2.011e-08 ++++++++++++++++++++++++++++to 2.01102e-08
Heightened Def Con from 2.01102e-08 ++++++++++++++++++++++++++++to 2.01104e-08
Heightened Def Con from 2.01104e-08 ++++++++++++++++++++++++++++to 2.01106e-08
Heightened Def Con from 2.01106e-08 ++++++++++++++++++++++++++++to 2.01108e-08
Heightened Def Con from 2.01108e-08 ++++++++++++++++++++++++++++to 2.0111e-08
Heightened Def Con from 2.0111e-08 ++++++++++++++++++++++++++++to 2.01111e-08
Heightened Def Con from 2.01111e-08 ++++++++++++++++++++++++++++to 2.01113e-08
Heightened Def Con from 2.01113e-08 ++++++++++++++++++++++++++++to 2.01115e-08
Heightened Def Con from 2.01115e-08 ++++++++++++++++++++++++++++to 2.01117e-08
Heightened Def Con from 2.01117e-08 ++++++++++++++++++++++++++++to 2.01119e-08
Heightened Def Con from 2.01119e-08 ++++++++++++++++++++++++++++to 2.01121e-08
Heightened Def Con from 2.01121e-08 ++++++++++++++++++++++++++++to 2.01123e-08
Heightened Def Con from 2.01123e-08 ++++++++++++++++++++++++++++to 2.01125e-08
Heightened Def Con from 2.01125e-08 ++++++++++++++++++++++++++++to 2.01127e-08
Heightened Def Con from 2.01127e-08 ++++++++++++++++++++++++++++to 2.01129e-08
Heightened Def Con from 2.01129e-08 ++++++++++++++++++++++++++++to 2.0113e-08
Heightened Def Con from 2.0113e-08 ++++++++++++++++++++++++++++to 2.01131e-08
Heightened Def Con from 2.01131e-08 ++++++++++++++++++++++++++++to 2.01131e-08
Heightened Def Con from 2.01131e-08 ++++++++++++++++++++++++++++to 2.01131e-08
Heightened Def Con from 2.01131e-08 ++++++++++++++++++++++++++++to 2.01131e-08
Heightened Def Con from 2.01131e-08 ++++++++++++++++++++++++++++to 2.01131e-08
Heightened Def Con from 2.01131e-08 ++++++++++++++++++++++++++++to 2.01131e-08
Heightened Def Con from 2.01131e-08 ++++++++++++++++++++++++++++to 2.01131e-08
Heightened Def Con from 2.01131e-08 ++++++++++++++++++++++++++++to 2.01131e-08
Heightened Def Con from 2.01131e-08 ++++++++++++++++++++++++++++to 2.01131e-08
Heightened Def Con from 2.01131e-08 ++++++++++++++++++++++++++++to 2.01131e-08
Heightened Def Con from 2.01131e-08 +++++++++++++++++++++++++++++++to 2.06014e-08
Heightened Def Con from 2.06014e-08 +++++++++++++++++++++++++++++to 2.07967e-08
Heightened Def Con from 2.07967e-08 +++++++++++++++++++++++++++++to 2.08943e-08
Heightened Def Con from 2.08943e-08 +++++++++++++++++++++++++++++to 2.09935e-08
Heightened Def Con from 2.09935e-08 +++++++++++++++++++++++++++++to 2.09937e-08
Heightened Def Con from 2.09937e-08 +++++++++++++++++++++++++++++to 2.09939e-08
Heightened Def Con from 2.09939e-08 +++++++++++++++++++++++++++++to 2.09941e-08
Heightened Def Con from 2.09941e-08 +++++++++++++++++++++++++++++to 2.09943e-08
Heightened Def Con from 2.09943e-08 +++++++++++++++++++++++++++++to 2.09945e-08
Heightened Def Con from 2.09945e-08 +++++++++++++++++++++++++++++to 2.09947e-08
Heightened Def Con from 2.09947e-08 +++++++++++++++++++++++++++++to 2.09949e-08
Heightened Def Con from 2.09949e-08 +++++++++++++++++++++++++++++to 2.09951e-08
Heightened Def Con from 2.09951e-08 +++++++++++++++++++++++++++++to 2.09952e-08
Heightened Def Con from 2.09952e-08 +++++++++++++++++++++++++++++to 2.09954e-08
Heightened Def Con from 2.09954e-08 +++++++++++++++++++++++++++++to 2.09956e-08
Heightened Def Con from 2.09956e-08 +++++++++++++++++++++++++++++to 2.09958e-08
Heightened Def Con from 2.09958e-08 +++++++++++++++++++++++++++++to 2.0996e-08
Heightened Def Con from 2.0996e-08 +++++++++++++++++++++++++++++to 2.0996e-08
Heightened Def Con from 2.0996e-08 +++++++++++++++++++++++++++++to 2.0996e-08
Heightened Def Con from 2.0996e-08 +++++++++++++++++++++++++++++to 2.0996e-08
Heightened Def Con from 2.0996e-08 +++++++++++++++++++++++++++++to 2.0996e-08
Heightened Def Con from 2.0996e-08 +++++++++++++++++++++++++++++to 2.0996e-08
Heightened Def Con from 2.0996e-08 +++++++++++++++++++++++++++++to 2.0996e-08
Heightened Def Con from 2.0996e-08 +++++++++++++++++++++++++++++to 2.0996e-08
Heightened Def Con from 2.0996e-08 ++++++++++++++++++++++++++++++to 2.10937e-08
Heightened Def Con from 2.10937e-08 ++++++++++++++++++++++++++++++to 2.1582e-08
Heightened Def Con from 2.1582e-08 +++++++++++++++++++++++++++++to 2.17773e-08
Heightened Def Con from 2.17773e-08 +++++++++++++++++++++++++++++to 2.19726e-08
Heightened Def Con from 2.19726e-08 +++++++++++++++++++++++++++++to 2.20703e-08
Heightened Def Con from 2.20703e-08 +++++++++++++++++++++++++++++to 2.21679e-08
Heightened Def Con from 2.21679e-08 +++++++++++++++++++++++++++++to 2.22656e-08
Heightened Def Con from 2.22656e-08 +++++++++++++++++++++++++++++to 2.23632e-08
Heightened Def Con from 2.23632e-08 +++++++++++++++++++++++++++++to 2.24609e-08
Heightened Def Con from 2.24609e-08 +++++++++++++++++++++++++++++to 2.25585e-08
Heightened Def Con from 2.25585e-08 +++++++++++++++++++++++++++++to 2.26562e-08
Heightened Def Con from 2.26562e-08 +++++++++++++++++++++++++++++to 2.27538e-08
Heightened Def Con from 2.27538e-08 +++++++++++++++++++++++++++++to 2.28515e-08
Heightened Def Con from 2.28515e-08 +++++++++++++++++++++++++++++to 2.29492e-08
Heightened Def Con from 2.29492e-08 +++++++++++++++++++++++++++++to 2.3059e-08
Heightened Def Con from 2.3059e-08 +++++++++++++++++++++++++++++to 2.30712e-08
Heightened Def Con from 2.30712e-08 +++++++++++++++++++++++++++++to 2.30834e-08
Heightened Def Con from 2.30834e-08 +++++++++++++++++++++++++++++to 2.30972e-08
Heightened Def Con from 2.30972e-08 +++++++++++++++++++++++++++++to 2.30989e-08
Heightened Def Con from 2.30989e-08 +++++++++++++++++++++++++++++to 2.30989e-08
Heightened Def Con from 2.30989e-08 +++++++++++++++++++++++++++++++to 2.36848e-08
Heightened Def Con from 2.36848e-08 +++++++++++++++++++++++++++++to 2.37825e-08
Heightened Def Con from 2.37825e-08 +++++++++++++++++++++++++++++to 2.38801e-08
Heightened Def Con from 2.38801e-08 +++++++++++++++++++++++++++++to 2.39778e-08
Heightened Def Con from 2.39778e-08 +++++++++++++++++++++++++++++to 2.40754e-08
Heightened Def Con from 2.40754e-08 +++++++++++++++++++++++++++++to 2.41731e-08
Heightened Def Con from 2.41731e-08 +++++++++++++++++++++++++++++to 2.42708e-08
Heightened Def Con from 2.42708e-08 +++++++++++++++++++++++++++++to 2.43684e-08
Heightened Def Con from 2.43684e-08 +++++++++++++++++++++++++++++to 2.44661e-08
Heightened Def Con from 2.44661e-08 +++++++++++++++++++++++++++++to 2.45637e-08
Heightened Def Con from 2.45637e-08 +++++++++++++++++++++++++++++to 2.46614e-08
Heightened Def Con from 2.46614e-08 +++++++++++++++++++++++++++++to 2.4759e-08
Heightened Def Con from 2.4759e-08 +++++++++++++++++++++++++++++to 2.48567e-08
Heightened Def Con from 2.48567e-08 +++++++++++++++++++++++++++++to 2.49544e-08
Heightened Def Con from 2.49544e-08 +++++++++++++++++++++++++++++to 2.5052e-08
Heightened Def Con from 2.5052e-08 +++++++++++++++++++++++++++++to 2.51497e-08
Heightened Def Con from 2.51497e-08 +++++++++++++++++++++++++++++to 2.52473e-08
Heightened Def Con from 2.52473e-08 +++++++++++++++++++++++++++++to 2.5345e-08
Heightened Def Con from 2.5345e-08 +++++++++++++++++++++++++++++to 2.54426e-08
Heightened Def Con from 2.54426e-08 +++++++++++++++++++++++++++++to 2.55403e-08
Heightened Def Con from 2.55403e-08 +++++++++++++++++++++++++++++to 2.56379e-08
Heightened Def Con from 2.56379e-08 +++++++++++++++++++++++++++++to 2.57356e-08
Heightened Def Con from 2.57356e-08 +++++++++++++++++++++++++++++to 2.58333e-08
Heightened Def Con from 2.58333e-08 +++++++++++++++++++++++++++++to 2.59431e-08
Heightened Def Con from 2.59431e-08 +++++++++++++++++++++++++++++to 2.59553e-08
Heightened Def Con from 2.59553e-08 +++++++++++++++++++++++++++++to 2.59675e-08
Heightened Def Con from 2.59675e-08 +++++++++++++++++++++++++++++to 2.59797e-08
Heightened Def Con from 2.59797e-08 +++++++++++++++++++++++++++++to 2.59935e-08
Heightened Def Con from 2.59935e-08 +++++++++++++++++++++++++++++to 2.59935e-08
Heightened Def Con from 2.59935e-08 ++++++++++++++++++++++++++++++to 2.65794e-08
Heightened Def Con from 2.65794e-08 +++++++++++++++++++++++++++++to 2.67747e-08
Heightened Def Con from 2.67747e-08 +++++++++++++++++++++++++++++to 2.697e-08
Heightened Def Con from 2.697e-08 +++++++++++++++++++++++++++++to 2.70677e-08
Heightened Def Con from 2.70677e-08 +++++++++++++++++++++++++++++to 2.71654e-08
Heightened Def Con from 2.71654e-08 +++++++++++++++++++++++++++++to 2.7263e-08
Heightened Def Con from 2.7263e-08 +++++++++++++++++++++++++++++to 2.73607e-08
Heightened Def Con from 2.73607e-08 +++++++++++++++++++++++++++++to 2.74583e-08
Heightened Def Con from 2.74583e-08 +++++++++++++++++++++++++++++to 2.7556e-08
Heightened Def Con from 2.7556e-08 +++++++++++++++++++++++++++++to 2.76536e-08
Heightened Def Con from 2.76536e-08 +++++++++++++++++++++++++++++to 2.77513e-08
Heightened Def Con from 2.77513e-08 +++++++++++++++++++++++++++++to 2.78489e-08
Heightened Def Con from 2.78489e-08 +++++++++++++++++++++++++++++to 2.79466e-08
Heightened Def Con from 2.79466e-08 +++++++++++++++++++++++++++++to 2.80565e-08
Heightened Def Con from 2.80565e-08 +++++++++++++++++++++++++++++to 2.80687e-08
Heightened Def Con from 2.80687e-08 +++++++++++++++++++++++++++++to 2.80809e-08
Heightened Def Con from 2.80809e-08 +++++++++++++++++++++++++++++to 2.80946e-08
Heightened Def Con from 2.80946e-08 +++++++++++++++++++++++++++++to 2.80961e-08
Heightened Def Con from 2.80961e-08 +++++++++++++++++++++++++++++to 2.80961e-08
Heightened Def Con from 2.80961e-08 +++++++++++++++++++++++++++++++to 2.86821e-08
Heightened Def Con from 2.86821e-08 +++++++++++++++++++++++++++++to 2.87797e-08
Heightened Def Con from 2.87797e-08 +++++++++++++++++++++++++++++to 2.88774e-08
Heightened Def Con from 2.88774e-08 +++++++++++++++++++++++++++++to 2.8975e-08
Heightened Def Con from 2.8975e-08 +++++++++++++++++++++++++++++to 2.90727e-08
Heightened Def Con from 2.90727e-08 +++++++++++++++++++++++++++++to 2.91704e-08
Heightened Def Con from 2.91704e-08 +++++++++++++++++++++++++++++to 2.9268e-08
Heightened Def Con from 2.9268e-08 +++++++++++++++++++++++++++++to 2.93657e-08
Heightened Def Con from 2.93657e-08 +++++++++++++++++++++++++++++to 2.94633e-08
Heightened Def Con from 2.94633e-08 +++++++++++++++++++++++++++++to 2.9561e-08
Heightened Def Con from 2.9561e-08 +++++++++++++++++++++++++++++to 2.96586e-08
Heightened Def Con from 2.96586e-08 +++++++++++++++++++++++++++++to 2.97563e-08
Heightened Def Con from 2.97563e-08 +++++++++++++++++++++++++++++to 2.9854e-08
Heightened Def Con from 2.9854e-08 +++++++++++++++++++++++++++++to 2.99516e-08
Heightened Def Con from 2.99516e-08 +++++++++++++++++++++++++++++to 3.01e-08
Heightened Def Con from 3.02e-08 +++++++++++++++++++++++++++++++++to 3.02e-08
Heightened Def Con from 3.02e-08 ++++++++++++++++++++++++++++++to 3.06883e-08
Heightened Def Con from 3.1e-08 ++++++++++++++++++++++++++++++to 3.10977e-08
Heightened Def Con from 3.10977e-08 ++++++++++++++++++++++++++++++to 3.1586e-08
Heightened Def Con from 3.1586e-08 +++++++++++++++++++++++++++++to 3.17813e-08
Heightened Def Con from 3.31e-08 ++++++++++++++++++++++++++++++to 3.31977e-08
Heightened Def Con from 3.31977e-08 ++++++++++++++++++++++++++++++to 3.3686e-08
Heightened Def Con from 3.6e-08 +++++++++++++++++++++++++++++++to 3.65859e-08
Heightened Def Con from 3.81e-08 ++++++++++++++++++++++++++++++to 3.81977e-08
Heightened Def Con from 3.81977e-08 ++++++++++++++++++++++++++++++to 3.8686e-08
Heightened Def Con from 4.01e-08 ++++++++++++++++++++++++++++to 4.01001e-08
Heightened Def Con from 4.01001e-08 ++++++++++++++++++++++++++++to 4.01003e-08
Heightened Def Con from 4.01003e-08 ++++++++++++++++++++++++++++to 4.01005e-08
Heightened Def Con from 4.01005e-08 ++++++++++++++++++++++++++++to 4.01007e-08
Heightened Def Con from 4.01007e-08 ++++++++++++++++++++++++++++to 4.01008e-08
Heightened Def Con from 4.01008e-08 ++++++++++++++++++++++++++++to 4.0101e-08
Heightened Def Con from 4.0101e-08 ++++++++++++++++++++++++++++to 4.01012e-08
Heightened Def Con from 4.01012e-08 ++++++++++++++++++++++++++++to 4.01014e-08
Heightened Def Con from 4.01014e-08 ++++++++++++++++++++++++++++to 4.01016e-08
Heightened Def Con from 4.01016e-08 ++++++++++++++++++++++++++++to 4.01018e-08
Heightened Def Con from 4.01018e-08 ++++++++++++++++++++++++++++to 4.0102e-08
Heightened Def Con from 4.0102e-08 ++++++++++++++++++++++++++++to 4.01022e-08
Heightened Def Con from 4.01022e-08 ++++++++++++++++++++++++++++to 4.01024e-08
Heightened Def Con from 4.01024e-08 ++++++++++++++++++++++++++++to 4.01026e-08
Heightened Def Con from 4.01026e-08 ++++++++++++++++++++++++++++to 4.01027e-08
Heightened Def Con from 4.01027e-08 ++++++++++++++++++++++++++++to 4.01029e-08
Heightened Def Con from 4.01029e-08 ++++++++++++++++++++++++++++to 4.01031e-08
Heightened Def Con from 4.01031e-08 ++++++++++++++++++++++++++++to 4.01033e-08
Heightened Def Con from 4.01033e-08 ++++++++++++++++++++++++++++to 4.01035e-08
Heightened Def Con from 4.01035e-08 ++++++++++++++++++++++++++++to 4.01037e-08
Heightened Def Con from 4.01037e-08 ++++++++++++++++++++++++++++to 4.01039e-08
Heightened Def Con from 4.01039e-08 ++++++++++++++++++++++++++++to 4.01041e-08
Heightened Def Con from 4.01041e-08 ++++++++++++++++++++++++++++to 4.01043e-08
Heightened Def Con from 4.01043e-08 ++++++++++++++++++++++++++++to 4.01045e-08
Heightened Def Con from 4.01045e-08 ++++++++++++++++++++++++++++to 4.01047e-08
Heightened Def Con from 4.01047e-08 ++++++++++++++++++++++++++++to 4.01048e-08
Heightened Def Con from 4.01048e-08 ++++++++++++++++++++++++++++to 4.0105e-08
Heightened Def Con from 4.0105e-08 ++++++++++++++++++++++++++++to 4.01052e-08
Heightened Def Con from 4.01052e-08 ++++++++++++++++++++++++++++to 4.01054e-08
Heightened Def Con from 4.01054e-08 ++++++++++++++++++++++++++++to 4.01056e-08
Heightened Def Con from 4.01056e-08 ++++++++++++++++++++++++++++to 4.01058e-08
Heightened Def Con from 4.01058e-08 ++++++++++++++++++++++++++++to 4.0106e-08
Heightened Def Con from 4.0106e-08 ++++++++++++++++++++++++++++to 4.01062e-08
Heightened Def Con from 4.01062e-08 ++++++++++++++++++++++++++++to 4.01064e-08
Heightened Def Con from 4.01064e-08 ++++++++++++++++++++++++++++to 4.01066e-08
Heightened Def Con from 4.01066e-08 ++++++++++++++++++++++++++++to 4.01068e-08
Heightened Def Con from 4.01068e-08 ++++++++++++++++++++++++++++to 4.01069e-08
Heightened Def Con from 4.01069e-08 ++++++++++++++++++++++++++++to 4.01071e-08
Heightened Def Con from 4.01071e-08 ++++++++++++++++++++++++++++to 4.01073e-08
Heightened Def Con from 4.01073e-08 ++++++++++++++++++++++++++++to 4.01075e-08
Heightened Def Con from 4.01075e-08 ++++++++++++++++++++++++++++to 4.01077e-08
Heightened Def Con from 4.01077e-08 ++++++++++++++++++++++++++++to 4.01079e-08
Heightened Def Con from 4.01079e-08 ++++++++++++++++++++++++++++to 4.01081e-08
Heightened Def Con from 4.01081e-08 ++++++++++++++++++++++++++++to 4.01083e-08
Heightened Def Con from 4.01083e-08 ++++++++++++++++++++++++++++to 4.01085e-08
Heightened Def Con from 4.01085e-08 ++++++++++++++++++++++++++++to 4.01087e-08
Heightened Def Con from 4.01087e-08 ++++++++++++++++++++++++++++to 4.01089e-08
Heightened Def Con from 4.01089e-08 ++++++++++++++++++++++++++++to 4.0109e-08
Heightened Def Con from 4.0109e-08 ++++++++++++++++++++++++++++to 4.01092e-08
Heightened Def Con from 4.01092e-08 ++++++++++++++++++++++++++++to 4.01094e-08
Heightened Def Con from 4.01094e-08 ++++++++++++++++++++++++++++to 4.01096e-08
Heightened Def Con from 4.01096e-08 ++++++++++++++++++++++++++++to 4.01098e-08
Heightened Def Con from 4.01098e-08 ++++++++++++++++++++++++++++to 4.011e-08
Heightened Def Con from 4.011e-08 ++++++++++++++++++++++++++++to 4.01102e-08
Heightened Def Con from 4.01102e-08 ++++++++++++++++++++++++++++to 4.01104e-08
Heightened Def Con from 4.01104e-08 ++++++++++++++++++++++++++++to 4.01106e-08
Heightened Def Con from 4.01106e-08 ++++++++++++++++++++++++++++to 4.01108e-08
Heightened Def Con from 4.01108e-08 ++++++++++++++++++++++++++++to 4.0111e-08
Heightened Def Con from 4.0111e-08 ++++++++++++++++++++++++++++to 4.01111e-08
Heightened Def Con from 4.01111e-08 ++++++++++++++++++++++++++++to 4.01113e-08
Heightened Def Con from 4.01113e-08 ++++++++++++++++++++++++++++to 4.01115e-08
Heightened Def Con from 4.01115e-08 ++++++++++++++++++++++++++++to 4.01117e-08
Heightened Def Con from 4.01117e-08 ++++++++++++++++++++++++++++to 4.01119e-08
Heightened Def Con from 4.01119e-08 ++++++++++++++++++++++++++++to 4.01121e-08
Heightened Def Con from 4.01121e-08 ++++++++++++++++++++++++++++to 4.01123e-08
Heightened Def Con from 4.01123e-08 ++++++++++++++++++++++++++++to 4.01125e-08
Heightened Def Con from 4.01125e-08 ++++++++++++++++++++++++++++to 4.01127e-08
Heightened Def Con from 4.01127e-08 ++++++++++++++++++++++++++++to 4.01129e-08
Heightened Def Con from 4.01129e-08 ++++++++++++++++++++++++++++to 4.0113e-08
Heightened Def Con from 4.0113e-08 ++++++++++++++++++++++++++++to 4.01131e-08
Heightened Def Con from 4.01131e-08 ++++++++++++++++++++++++++++to 4.01131e-08
Heightened Def Con from 4.01131e-08 ++++++++++++++++++++++++++++to 4.01131e-08
Heightened Def Con from 4.01131e-08 ++++++++++++++++++++++++++++to 4.01131e-08
Heightened Def Con from 4.01131e-08 ++++++++++++++++++++++++++++to 4.01131e-08
Heightened Def Con from 4.01131e-08 ++++++++++++++++++++++++++++to 4.01131e-08
Heightened Def Con from 4.01131e-08 ++++++++++++++++++++++++++++to 4.01131e-08
Heightened Def Con from 4.01131e-08 ++++++++++++++++++++++++++++to 4.01131e-08
Heightened Def Con from 4.01131e-08 ++++++++++++++++++++++++++++to 4.01131e-08
Heightened Def Con from 4.01131e-08 ++++++++++++++++++++++++++++to 4.01131e-08
Heightened Def Con from 4.01131e-08 ++++++++++++++++++++++++++++to 4.01131e-08
Heightened Def Con from 4.01131e-08 ++++++++++++++++++++++++++++to 4.01131e-08
Heightened Def Con from 4.01131e-08 ++++++++++++++++++++++++++++to 4.01131e-08
Heightened Def Con from 4.01131e-08 +++++++++++++++++++++++++++++++to 4.06014e-08
Heightened Def Con from 4.06014e-08 +++++++++++++++++++++++++++++to 4.07967e-08
Heightened Def Con from 4.07967e-08 +++++++++++++++++++++++++++++to 4.08943e-08
Heightened Def Con from 4.08943e-08 +++++++++++++++++++++++++++++to 4.09935e-08
Heightened Def Con from 4.09935e-08 +++++++++++++++++++++++++++++to 4.09937e-08
Heightened Def Con from 4.09937e-08 +++++++++++++++++++++++++++++to 4.09939e-08
Heightened Def Con from 4.09939e-08 +++++++++++++++++++++++++++++to 4.09941e-08
Heightened Def Con from 4.09941e-08 +++++++++++++++++++++++++++++to 4.09943e-08
Heightened Def Con from 4.09943e-08 +++++++++++++++++++++++++++++to 4.09945e-08
Heightened Def Con from 4.09945e-08 +++++++++++++++++++++++++++++to 4.09947e-08
Heightened Def Con from 4.09947e-08 +++++++++++++++++++++++++++++to 4.09949e-08
Heightened Def Con from 4.09949e-08 +++++++++++++++++++++++++++++to 4.09951e-08
Heightened Def Con from 4.09951e-08 +++++++++++++++++++++++++++++to 4.09952e-08
Heightened Def Con from 4.09952e-08 +++++++++++++++++++++++++++++to 4.09954e-08
Heightened Def Con from 4.09954e-08 +++++++++++++++++++++++++++++to 4.09956e-08
Heightened Def Con from 4.09956e-08 +++++++++++++++++++++++++++++to 4.09958e-08
Heightened Def Con from 4.09958e-08 +++++++++++++++++++++++++++++to 4.0996e-08
Heightened Def Con from 4.0996e-08 +++++++++++++++++++++++++++++to 4.0996e-08
Heightened Def Con from 4.0996e-08 +++++++++++++++++++++++++++++to 4.0996e-08
Heightened Def Con from 4.0996e-08 +++++++++++++++++++++++++++++to 4.0996e-08
Heightened Def Con from 4.0996e-08 +++++++++++++++++++++++++++++to 4.0996e-08
Heightened Def Con from 4.0996e-08 ++++++++++++++++++++++++++++++to 4.10937e-08
Heightened Def Con from 4.10937e-08 ++++++++++++++++++++++++++++++to 4.1582e-08
Heightened Def Con from 4.1582e-08 +++++++++++++++++++++++++++++to 4.17773e-08
Heightened Def Con from 4.17773e-08 +++++++++++++++++++++++++++++to 4.19726e-08
Heightened Def Con from 4.19726e-08 +++++++++++++++++++++++++++++to 4.20703e-08
Heightened Def Con from 4.20703e-08 +++++++++++++++++++++++++++++to 4.21679e-08
Heightened Def Con from 4.21679e-08 +++++++++++++++++++++++++++++to 4.22656e-08
Heightened Def Con from 4.22656e-08 +++++++++++++++++++++++++++++to 4.23632e-08
Heightened Def Con from 4.23632e-08 +++++++++++++++++++++++++++++to 4.24609e-08
Heightened Def Con from 4.24609e-08 +++++++++++++++++++++++++++++to 4.25585e-08
Heightened Def Con from 4.25585e-08 +++++++++++++++++++++++++++++to 4.26562e-08
Heightened Def Con from 4.26562e-08 +++++++++++++++++++++++++++++to 4.27538e-08
Heightened Def Con from 4.27538e-08 +++++++++++++++++++++++++++++to 4.28515e-08
Heightened Def Con from 4.28515e-08 +++++++++++++++++++++++++++++to 4.29492e-08
Heightened Def Con from 4.29492e-08 +++++++++++++++++++++++++++++to 4.3059e-08
Heightened Def Con from 4.3059e-08 +++++++++++++++++++++++++++++to 4.30712e-08
Heightened Def Con from 4.30712e-08 +++++++++++++++++++++++++++++to 4.30834e-08
Heightened Def Con from 4.30834e-08 +++++++++++++++++++++++++++++to 4.30972e-08
Heightened Def Con from 4.30972e-08 +++++++++++++++++++++++++++++to 4.30989e-08
Heightened Def Con from 4.30989e-08 +++++++++++++++++++++++++++++to 4.30989e-08
Heightened Def Con from 4.30989e-08 +++++++++++++++++++++++++++++to 4.30989e-08
Heightened Def Con from 4.30989e-08 +++++++++++++++++++++++++++++to 4.30989e-08
Heightened Def Con from 4.30989e-08 +++++++++++++++++++++++++++++to 4.30989e-08
Heightened Def Con from 4.30989e-08 +++++++++++++++++++++++++++++to 4.30989e-08
Heightened Def Con from 4.30989e-08 +++++++++++++++++++++++++++++++to 4.36848e-08
Heightened Def Con from 4.36848e-08 +++++++++++++++++++++++++++++to 4.37825e-08
Heightened Def Con from 4.37825e-08 +++++++++++++++++++++++++++++to 4.38801e-08
Heightened Def Con from 4.38801e-08 +++++++++++++++++++++++++++++to 4.39778e-08
Heightened Def Con from 4.39778e-08 +++++++++++++++++++++++++++++to 4.40754e-08
Heightened Def Con from 4.40754e-08 +++++++++++++++++++++++++++++to 4.41731e-08
Heightened Def Con from 4.41731e-08 +++++++++++++++++++++++++++++to 4.42708e-08
Heightened Def Con from 4.42708e-08 +++++++++++++++++++++++++++++to 4.43684e-08
Heightened Def Con from 4.43684e-08 +++++++++++++++++++++++++++++to 4.44661e-08
Heightened Def Con from 4.44661e-08 +++++++++++++++++++++++++++++to 4.45637e-08
Heightened Def Con from 4.45637e-08 +++++++++++++++++++++++++++++to 4.46614e-08
Heightened Def Con from 4.46614e-08 +++++++++++++++++++++++++++++to 4.4759e-08
Heightened Def Con from 4.4759e-08 +++++++++++++++++++++++++++++to 4.48567e-08
Heightened Def Con from 4.48567e-08 +++++++++++++++++++++++++++++to 4.49544e-08
Heightened Def Con from 4.49544e-08 +++++++++++++++++++++++++++++to 4.5052e-08
Heightened Def Con from 4.5052e-08 +++++++++++++++++++++++++++++to 4.51497e-08
Heightened Def Con from 4.51497e-08 +++++++++++++++++++++++++++++to 4.52473e-08
Heightened Def Con from 4.52473e-08 +++++++++++++++++++++++++++++to 4.5345e-08
Heightened Def Con from 4.5345e-08 +++++++++++++++++++++++++++++to 4.54426e-08
Heightened Def Con from 4.54426e-08 +++++++++++++++++++++++++++++to 4.55403e-08
Heightened Def Con from 4.55403e-08 +++++++++++++++++++++++++++++to 4.56379e-08
Heightened Def Con from 4.56379e-08 +++++++++++++++++++++++++++++to 4.57356e-08
Heightened Def Con from 4.57356e-08 +++++++++++++++++++++++++++++to 4.58333e-08
Heightened Def Con from 4.58333e-08 +++++++++++++++++++++++++++++to 4.59431e-08
Heightened Def Con from 4.59431e-08 +++++++++++++++++++++++++++++to 4.59553e-08
Heightened Def Con from 4.59553e-08 +++++++++++++++++++++++++++++to 4.59675e-08
Heightened Def Con from 4.59675e-08 +++++++++++++++++++++++++++++to 4.59797e-08
Heightened Def Con from 4.59797e-08 +++++++++++++++++++++++++++++to 4.59935e-08
Heightened Def Con from 4.59935e-08 +++++++++++++++++++++++++++++to 4.59935e-08
Heightened Def Con from 4.59935e-08 ++++++++++++++++++++++++++++++to 4.65794e-08
Heightened Def Con from 4.65794e-08 +++++++++++++++++++++++++++++to 4.67747e-08
Heightened Def Con from 4.67747e-08 +++++++++++++++++++++++++++++to 4.697e-08
Heightened Def Con from 4.697e-08 +++++++++++++++++++++++++++++to 4.70677e-08
Heightened Def Con from 4.70677e-08 +++++++++++++++++++++++++++++to 4.71654e-08
Heightened Def Con from 4.71654e-08 +++++++++++++++++++++++++++++to 4.7263e-08
Heightened Def Con from 4.7263e-08 +++++++++++++++++++++++++++++to 4.73607e-08
Heightened Def Con from 4.73607e-08 +++++++++++++++++++++++++++++to 4.74583e-08
Heightened Def Con from 4.74583e-08 +++++++++++++++++++++++++++++to 4.7556e-08
Heightened Def Con from 4.7556e-08 +++++++++++++++++++++++++++++to 4.76536e-08
Heightened Def Con from 4.76536e-08 +++++++++++++++++++++++++++++to 4.77513e-08
Heightened Def Con from 4.77513e-08 +++++++++++++++++++++++++++++to 4.78489e-08
Heightened Def Con from 4.78489e-08 +++++++++++++++++++++++++++++to 4.79466e-08
Heightened Def Con from 4.79466e-08 +++++++++++++++++++++++++++++to 4.80565e-08
Heightened Def Con from 4.80565e-08 +++++++++++++++++++++++++++++to 4.80687e-08
Heightened Def Con from 4.80687e-08 +++++++++++++++++++++++++++++to 4.80809e-08
Heightened Def Con from 4.80809e-08 +++++++++++++++++++++++++++++to 4.80946e-08
Heightened Def Con from 4.80946e-08 +++++++++++++++++++++++++++++to 4.80961e-08
Heightened Def Con from 4.80961e-08 +++++++++++++++++++++++++++++++to 4.86821e-08
Heightened Def Con from 4.86821e-08 +++++++++++++++++++++++++++++to 4.87797e-08
Heightened Def Con from 4.87797e-08 +++++++++++++++++++++++++++++to 4.88774e-08
Heightened Def Con from 4.88774e-08 +++++++++++++++++++++++++++++to 4.8975e-08
Heightened Def Con from 4.8975e-08 +++++++++++++++++++++++++++++to 4.90727e-08
Heightened Def Con from 4.90727e-08 +++++++++++++++++++++++++++++to 4.91704e-08
Heightened Def Con from 4.91704e-08 +++++++++++++++++++++++++++++to 4.9268e-08
Heightened Def Con from 4.9268e-08 +++++++++++++++++++++++++++++to 4.93657e-08
Heightened Def Con from 4.93657e-08 +++++++++++++++++++++++++++++to 4.94633e-08
Heightened Def Con from 4.94633e-08 +++++++++++++++++++++++++++++to 4.9561e-08
Heightened Def Con from 4.9561e-08 +++++++++++++++++++++++++++++to 4.96586e-08
Heightened Def Con from 4.96586e-08 +++++++++++++++++++++++++++++to 4.97563e-08
Heightened Def Con from 4.97563e-08 +++++++++++++++++++++++++++++to 4.9854e-08
Heightened Def Con from 4.9854e-08 +++++++++++++++++++++++++++++to 4.99516e-08
Heightened Def Con from 4.99516e-08 +++++++++++++++++++++++++++++to 5.01e-08
Heightened Def Con from 5.02e-08 +++++++++++++++++++++++++++++++++to 5.02e-08
Heightened Def Con from 5.02e-08 ++++++++++++++++++++++++++++++to 5.06883e-08
Heightened Def Con from 5.1e-08 ++++++++++++++++++++++++++++++to 5.10977e-08
Heightened Def Con from 5.10977e-08 ++++++++++++++++++++++++++++++to 5.1586e-08
Heightened Def Con from 5.1586e-08 +++++++++++++++++++++++++++++to 5.17813e-08
Heightened Def Con from 5.31e-08 ++++++++++++++++++++++++++++++to 5.31977e-08
Heightened Def Con from 5.31977e-08 ++++++++++++++++++++++++++++++to 5.3686e-08
Heightened Def Con from 5.6e-08 +++++++++++++++++++++++++++++++to 5.65859e-08
Heightened Def Con from 5.81e-08 ++++++++++++++++++++++++++++++to 5.81977e-08
Heightened Def Con from 5.81977e-08 ++++++++++++++++++++++++++++++to 5.8686e-08
Heightened Def Con from 6.01e-08 ++++++++++++++++++++++++++++to 6.01001e-08
Heightened Def Con from 6.01001e-08 ++++++++++++++++++++++++++++to 6.01003e-08
Heightened Def Con from 6.01003e-08 ++++++++++++++++++++++++++++to 6.01005e-08
Heightened Def Con from 6.01005e-08 ++++++++++++++++++++++++++++to 6.01007e-08
Heightened Def Con from 6.01007e-08 ++++++++++++++++++++++++++++to 6.01008e-08
Heightened Def Con from 6.01008e-08 ++++++++++++++++++++++++++++to 6.0101e-08
Heightened Def Con from 6.0101e-08 ++++++++++++++++++++++++++++to 6.01012e-08
Heightened Def Con from 6.01012e-08 ++++++++++++++++++++++++++++to 6.01014e-08
Heightened Def Con from 6.01014e-08 ++++++++++++++++++++++++++++to 6.01016e-08
Heightened Def Con from 6.01016e-08 ++++++++++++++++++++++++++++to 6.01018e-08
Heightened Def Con from 6.01018e-08 ++++++++++++++++++++++++++++to 6.0102e-08
Heightened Def Con from 6.0102e-08 ++++++++++++++++++++++++++++to 6.01022e-08
Heightened Def Con from 6.01022e-08 ++++++++++++++++++++++++++++to 6.01024e-08
Heightened Def Con from 6.01024e-08 ++++++++++++++++++++++++++++to 6.01026e-08
Heightened Def Con from 6.01026e-08 ++++++++++++++++++++++++++++to 6.01027e-08
Heightened Def Con from 6.01027e-08 ++++++++++++++++++++++++++++to 6.01029e-08
Heightened Def Con from 6.01029e-08 ++++++++++++++++++++++++++++to 6.01031e-08
Heightened Def Con from 6.01031e-08 ++++++++++++++++++++++++++++to 6.01033e-08
Heightened Def Con from 6.01033e-08 ++++++++++++++++++++++++++++to 6.01035e-08
Heightened Def Con from 6.01035e-08 ++++++++++++++++++++++++++++to 6.01037e-08
Heightened Def Con from 6.01037e-08 ++++++++++++++++++++++++++++to 6.01039e-08
Heightened Def Con from 6.01039e-08 ++++++++++++++++++++++++++++to 6.01041e-08
Heightened Def Con from 6.01041e-08 ++++++++++++++++++++++++++++to 6.01043e-08
Heightened Def Con from 6.01043e-08 ++++++++++++++++++++++++++++to 6.01045e-08
Heightened Def Con from 6.01045e-08 ++++++++++++++++++++++++++++to 6.01047e-08
Heightened Def Con from 6.01047e-08 ++++++++++++++++++++++++++++to 6.01048e-08
Heightened Def Con from 6.01048e-08 ++++++++++++++++++++++++++++to 6.0105e-08
Heightened Def Con from 6.0105e-08 ++++++++++++++++++++++++++++to 6.01052e-08
Heightened Def Con from 6.01052e-08 ++++++++++++++++++++++++++++to 6.01054e-08
Heightened Def Con from 6.01054e-08 ++++++++++++++++++++++++++++to 6.01056e-08
Heightened Def Con from 6.01056e-08 ++++++++++++++++++++++++++++to 6.01058e-08
Heightened Def Con from 6.01058e-08 ++++++++++++++++++++++++++++to 6.0106e-08
Heightened Def Con from 6.0106e-08 ++++++++++++++++++++++++++++to 6.01062e-08
Heightened Def Con from 6.01062e-08 ++++++++++++++++++++++++++++to 6.01064e-08
Heightened Def Con from 6.01064e-08 ++++++++++++++++++++++++++++to 6.01066e-08
Heightened Def Con from 6.01066e-08 ++++++++++++++++++++++++++++to 6.01068e-08
Heightened Def Con from 6.01068e-08 ++++++++++++++++++++++++++++to 6.01069e-08
Heightened Def Con from 6.01069e-08 ++++++++++++++++++++++++++++to 6.01071e-08
Heightened Def Con from 6.01071e-08 ++++++++++++++++++++++++++++to 6.01073e-08
Heightened Def Con from 6.01073e-08 ++++++++++++++++++++++++++++to 6.01075e-08
Heightened Def Con from 6.01075e-08 ++++++++++++++++++++++++++++to 6.01077e-08
Heightened Def Con from 6.01077e-08 ++++++++++++++++++++++++++++to 6.01079e-08
Heightened Def Con from 6.01079e-08 ++++++++++++++++++++++++++++to 6.01081e-08
Heightened Def Con from 6.01081e-08 ++++++++++++++++++++++++++++to 6.01083e-08
Heightened Def Con from 6.01083e-08 ++++++++++++++++++++++++++++to 6.01085e-08
Heightened Def Con from 6.01085e-08 ++++++++++++++++++++++++++++to 6.01087e-08
Heightened Def Con from 6.01087e-08 ++++++++++++++++++++++++++++to 6.01089e-08
Heightened Def Con from 6.01089e-08 ++++++++++++++++++++++++++++to 6.0109e-08
Heightened Def Con from 6.0109e-08 ++++++++++++++++++++++++++++to 6.01092e-08
Heightened Def Con from 6.01092e-08 ++++++++++++++++++++++++++++to 6.01094e-08
Heightened Def Con from 6.01094e-08 ++++++++++++++++++++++++++++to 6.01096e-08
Heightened Def Con from 6.01096e-08 ++++++++++++++++++++++++++++to 6.01098e-08
Heightened Def Con from 6.01098e-08 ++++++++++++++++++++++++++++to 6.011e-08
Heightened Def Con from 6.011e-08 ++++++++++++++++++++++++++++to 6.01102e-08
Heightened Def Con from 6.01102e-08 ++++++++++++++++++++++++++++to 6.01104e-08
Heightened Def Con from 6.01104e-08 ++++++++++++++++++++++++++++to 6.01106e-08
Heightened Def Con from 6.01106e-08 ++++++++++++++++++++++++++++to 6.01108e-08
Heightened Def Con from 6.01108e-08 ++++++++++++++++++++++++++++to 6.0111e-08
Heightened Def Con from 6.0111e-08 ++++++++++++++++++++++++++++to 6.01111e-08
Heightened Def Con from 6.01111e-08 ++++++++++++++++++++++++++++to 6.01113e-08
Heightened Def Con from 6.01113e-08 ++++++++++++++++++++++++++++to 6.01115e-08
Heightened Def Con from 6.01115e-08 ++++++++++++++++++++++++++++to 6.01117e-08
Heightened Def Con from 6.01117e-08 ++++++++++++++++++++++++++++to 6.01119e-08
Heightened Def Con from 6.01119e-08 ++++++++++++++++++++++++++++to 6.01121e-08
Heightened Def Con from 6.01121e-08 ++++++++++++++++++++++++++++to 6.01123e-08
Heightened Def Con from 6.01123e-08 ++++++++++++++++++++++++++++to 6.01125e-08
Heightened Def Con from 6.01125e-08 ++++++++++++++++++++++++++++to 6.01127e-08
Heightened Def Con from 6.01127e-08 ++++++++++++++++++++++++++++to 6.01129e-08
Heightened Def Con from 6.01129e-08 ++++++++++++++++++++++++++++to 6.0113e-08
Heightened Def Con from 6.0113e-08 ++++++++++++++++++++++++++++to 6.01131e-08
Heightened Def Con from 6.01131e-08 ++++++++++++++++++++++++++++to 6.01131e-08
Heightened Def Con from 6.01131e-08 ++++++++++++++++++++++++++++to 6.01131e-08
Heightened Def Con from 6.01131e-08 ++++++++++++++++++++++++++++to 6.01131e-08
Heightened Def Con from 6.01131e-08 ++++++++++++++++++++++++++++to 6.01131e-08
Heightened Def Con from 6.01131e-08 ++++++++++++++++++++++++++++to 6.01131e-08
Heightened Def Con from 6.01131e-08 ++++++++++++++++++++++++++++to 6.01131e-08
Heightened Def Con from 6.01131e-08 ++++++++++++++++++++++++++++to 6.01131e-08
Heightened Def Con from 6.01131e-08 ++++++++++++++++++++++++++++to 6.01131e-08
Heightened Def Con from 6.01131e-08 ++++++++++++++++++++++++++++to 6.01131e-08
Heightened Def Con from 6.01131e-08 ++++++++++++++++++++++++++++to 6.01131e-08
Heightened Def Con from 6.01131e-08 ++++++++++++++++++++++++++++to 6.01131e-08
Heightened Def Con from 6.01131e-08 ++++++++++++++++++++++++++++to 6.01131e-08
Heightened Def Con from 6.01131e-08 +++++++++++++++++++++++++++++++to 6.06014e-08
Heightened Def Con from 6.06014e-08 +++++++++++++++++++++++++++++to 6.07967e-08
Heightened Def Con from 6.07967e-08 +++++++++++++++++++++++++++++to 6.08943e-08
Heightened Def Con from 6.08943e-08 +++++++++++++++++++++++++++++to 6.09935e-08
Heightened Def Con from 6.09935e-08 +++++++++++++++++++++++++++++to 6.09937e-08
Heightened Def Con from 6.09937e-08 +++++++++++++++++++++++++++++to 6.09939e-08
Heightened Def Con from 6.09939e-08 +++++++++++++++++++++++++++++to 6.09941e-08
Heightened Def Con from 6.09941e-08 +++++++++++++++++++++++++++++to 6.09943e-08
Heightened Def Con from 6.09943e-08 +++++++++++++++++++++++++++++to 6.09945e-08
Heightened Def Con from 6.09945e-08 +++++++++++++++++++++++++++++to 6.09947e-08
Heightened Def Con from 6.09947e-08 +++++++++++++++++++++++++++++to 6.09949e-08
Heightened Def Con from 6.09949e-08 +++++++++++++++++++++++++++++to 6.09951e-08
Heightened Def Con from 6.09951e-08 +++++++++++++++++++++++++++++to 6.09952e-08
Heightened Def Con from 6.09952e-08 +++++++++++++++++++++++++++++to 6.09954e-08
Heightened Def Con from 6.09954e-08 +++++++++++++++++++++++++++++to 6.09956e-08
Heightened Def Con from 6.09956e-08 +++++++++++++++++++++++++++++to 6.09958e-08
Heightened Def Con from 6.09958e-08 +++++++++++++++++++++++++++++to 6.0996e-08
Heightened Def Con from 6.0996e-08 +++++++++++++++++++++++++++++to 6.0996e-08
Heightened Def Con from 6.0996e-08 +++++++++++++++++++++++++++++to 6.0996e-08
Heightened Def Con from 6.0996e-08 +++++++++++++++++++++++++++++to 6.0996e-08
Heightened Def Con from 6.0996e-08 +++++++++++++++++++++++++++++to 6.0996e-08
Heightened Def Con from 6.0996e-08 +++++++++++++++++++++++++++++to 6.0996e-08
Heightened Def Con from 6.0996e-08 +++++++++++++++++++++++++++++to 6.0996e-08
Heightened Def Con from 6.0996e-08 +++++++++++++++++++++++++++++to 6.0996e-08
Heightened Def Con from 6.0996e-08 +++++++++++++++++++++++++++++to 6.0996e-08
Heightened Def Con from 6.0996e-08 +++++++++++++++++++++++++++++to 6.0996e-08
Heightened Def Con from 6.0996e-08 +++++++++++++++++++++++++++++to 6.0996e-08
Heightened Def Con from 6.0996e-08 +++++++++++++++++++++++++++++to 6.0996e-08
Heightened Def Con from 6.0996e-08 +++++++++++++++++++++++++++++to 6.0996e-08
Heightened Def Con from 6.0996e-08 +++++++++++++++++++++++++++++to 6.0996e-08
Heightened Def Con from 6.0996e-08 +++++++++++++++++++++++++++++to 6.0996e-08
Heightened Def Con from 6.0996e-08 +++++++++++++++++++++++++++++to 6.0996e-08
Heightened Def Con from 6.0996e-08 +++++++++++++++++++++++++++++to 6.0996e-08
Heightened Def Con from 6.0996e-08 +++++++++++++++++++++++++++++to 6.0996e-08
Heightened Def Con from 6.0996e-08 +++++++++++++++++++++++++++++to 6.0996e-08
Heightened Def Con from 6.0996e-08 +++++++++++++++++++++++++++++to 6.0996e-08
Heightened Def Con from 6.0996e-08 ++++++++++++++++++++++++++++++to 6.10937e-08
Heightened Def Con from 6.10937e-08 ++++++++++++++++++++++++++++++to 6.1582e-08
Heightened Def Con from 6.1582e-08 +++++++++++++++++++++++++++++to 6.17773e-08
Heightened Def Con from 6.17773e-08 +++++++++++++++++++++++++++++to 6.19726e-08
Heightened Def Con from 6.19726e-08 +++++++++++++++++++++++++++++to 6.20703e-08
Heightened Def Con from 6.20703e-08 +++++++++++++++++++++++++++++to 6.21679e-08
Heightened Def Con from 6.21679e-08 +++++++++++++++++++++++++++++to 6.22656e-08
Heightened Def Con from 6.22656e-08 +++++++++++++++++++++++++++++to 6.23632e-08
Heightened Def Con from 6.23632e-08 +++++++++++++++++++++++++++++to 6.24609e-08
Heightened Def Con from 6.24609e-08 +++++++++++++++++++++++++++++to 6.25585e-08
Heightened Def Con from 6.25585e-08 +++++++++++++++++++++++++++++to 6.26562e-08
Heightened Def Con from 6.26562e-08 +++++++++++++++++++++++++++++to 6.27538e-08
Heightened Def Con from 6.27538e-08 +++++++++++++++++++++++++++++to 6.28515e-08
Heightened Def Con from 6.28515e-08 +++++++++++++++++++++++++++++to 6.29492e-08
Heightened Def Con from 6.29492e-08 +++++++++++++++++++++++++++++to 6.3059e-08
Heightened Def Con from 6.3059e-08 +++++++++++++++++++++++++++++to 6.30712e-08
Heightened Def Con from 6.30712e-08 +++++++++++++++++++++++++++++to 6.30834e-08
Heightened Def Con from 6.30834e-08 +++++++++++++++++++++++++++++to 6.30972e-08
Heightened Def Con from 6.30972e-08 +++++++++++++++++++++++++++++to 6.30989e-08
Heightened Def Con from 6.30989e-08 +++++++++++++++++++++++++++++++to 6.36848e-08
Heightened Def Con from 6.36848e-08 +++++++++++++++++++++++++++++to 6.37825e-08
Heightened Def Con from 6.37825e-08 +++++++++++++++++++++++++++++to 6.38801e-08
Heightened Def Con from 6.38801e-08 +++++++++++++++++++++++++++++to 6.39778e-08
Heightened Def Con from 6.39778e-08 +++++++++++++++++++++++++++++to 6.40754e-08
Heightened Def Con from 6.40754e-08 +++++++++++++++++++++++++++++to 6.41731e-08
Heightened Def Con from 6.41731e-08 +++++++++++++++++++++++++++++to 6.42708e-08
Heightened Def Con from 6.42708e-08 +++++++++++++++++++++++++++++to 6.43684e-08
Heightened Def Con from 6.43684e-08 +++++++++++++++++++++++++++++to 6.44661e-08
Heightened Def Con from 6.44661e-08 +++++++++++++++++++++++++++++to 6.45637e-08
Heightened Def Con from 6.45637e-08 +++++++++++++++++++++++++++++to 6.46614e-08
Heightened Def Con from 6.46614e-08 +++++++++++++++++++++++++++++to 6.4759e-08
Heightened Def Con from 6.4759e-08 +++++++++++++++++++++++++++++to 6.48567e-08
Heightened Def Con from 6.48567e-08 +++++++++++++++++++++++++++++to 6.49544e-08
Heightened Def Con from 6.49544e-08 +++++++++++++++++++++++++++++to 6.5052e-08
Heightened Def Con from 6.5052e-08 +++++++++++++++++++++++++++++to 6.51497e-08
Heightened Def Con from 6.51497e-08 +++++++++++++++++++++++++++++to 6.52473e-08
Heightened Def Con from 6.52473e-08 +++++++++++++++++++++++++++++to 6.5345e-08
Heightened Def Con from 6.5345e-08 +++++++++++++++++++++++++++++to 6.54426e-08
Heightened Def Con from 6.54426e-08 +++++++++++++++++++++++++++++to 6.55403e-08
Heightened Def Con from 6.55403e-08 +++++++++++++++++++++++++++++to 6.56379e-08
Heightened Def Con from 6.56379e-08 +++++++++++++++++++++++++++++to 6.57356e-08
Heightened Def Con from 6.57356e-08 +++++++++++++++++++++++++++++to 6.58333e-08
Heightened Def Con from 6.58333e-08 +++++++++++++++++++++++++++++to 6.59431e-08
Heightened Def Con from 6.59431e-08 +++++++++++++++++++++++++++++to 6.59553e-08
Heightened Def Con from 6.59553e-08 +++++++++++++++++++++++++++++to 6.59675e-08
Heightened Def Con from 6.59675e-08 +++++++++++++++++++++++++++++to 6.59797e-08
Heightened Def Con from 6.59797e-08 +++++++++++++++++++++++++++++to 6.59935e-08
Heightened Def Con from 6.59935e-08 +++++++++++++++++++++++++++++to 6.59935e-08
Heightened Def Con from 6.59935e-08 +++++++++++++++++++++++++++++to 6.59935e-08
Heightened Def Con from 6.59935e-08 +++++++++++++++++++++++++++++to 6.59935e-08
Heightened Def Con from 6.59935e-08 +++++++++++++++++++++++++++++to 6.59935e-08
Heightened Def Con from 6.59935e-08 ++++++++++++++++++++++++++++++to 6.65794e-08
Heightened Def Con from 6.65794e-08 +++++++++++++++++++++++++++++to 6.67747e-08
Heightened Def Con from 6.67747e-08 +++++++++++++++++++++++++++++to 6.697e-08
Heightened Def Con from 6.697e-08 +++++++++++++++++++++++++++++to 6.70677e-08
Heightened Def Con from 6.70677e-08 +++++++++++++++++++++++++++++to 6.71654e-08
Heightened Def Con from 6.71654e-08 +++++++++++++++++++++++++++++to 6.7263e-08
Heightened Def Con from 6.7263e-08 +++++++++++++++++++++++++++++to 6.73607e-08
Heightened Def Con from 6.73607e-08 +++++++++++++++++++++++++++++to 6.74583e-08
Heightened Def Con from 6.74583e-08 +++++++++++++++++++++++++++++to 6.7556e-08
Heightened Def Con from 6.7556e-08 +++++++++++++++++++++++++++++to 6.76536e-08
Heightened Def Con from 6.76536e-08 +++++++++++++++++++++++++++++to 6.77513e-08
Heightened Def Con from 6.77513e-08 +++++++++++++++++++++++++++++to 6.78489e-08
Heightened Def Con from 6.78489e-08 +++++++++++++++++++++++++++++to 6.79466e-08
Heightened Def Con from 6.79466e-08 +++++++++++++++++++++++++++++to 6.80565e-08
Heightened Def Con from 6.80565e-08 +++++++++++++++++++++++++++++to 6.80687e-08
Heightened Def Con from 6.80687e-08 +++++++++++++++++++++++++++++to 6.80809e-08
Heightened Def Con from 6.80809e-08 +++++++++++++++++++++++++++++to 6.80946e-08
Heightened Def Con from 6.80946e-08 +++++++++++++++++++++++++++++to 6.80961e-08
Heightened Def Con from 6.80961e-08 +++++++++++++++++++++++++++++++to 6.86821e-08
Heightened Def Con from 6.86821e-08 +++++++++++++++++++++++++++++to 6.87797e-08
Heightened Def Con from 6.87797e-08 +++++++++++++++++++++++++++++to 6.88774e-08
Heightened Def Con from 6.88774e-08 +++++++++++++++++++++++++++++to 6.8975e-08
Heightened Def Con from 6.8975e-08 +++++++++++++++++++++++++++++to 6.90727e-08
Heightened Def Con from 6.90727e-08 +++++++++++++++++++++++++++++to 6.91704e-08
Heightened Def Con from 6.91704e-08 +++++++++++++++++++++++++++++to 6.9268e-08
Heightened Def Con from 6.9268e-08 +++++++++++++++++++++++++++++to 6.93657e-08
Heightened Def Con from 6.93657e-08 +++++++++++++++++++++++++++++to 6.94633e-08
Heightened Def Con from 6.94633e-08 +++++++++++++++++++++++++++++to 6.9561e-08
Heightened Def Con from 6.9561e-08 +++++++++++++++++++++++++++++to 6.96586e-08
Heightened Def Con from 6.96586e-08 +++++++++++++++++++++++++++++to 6.97563e-08
Heightened Def Con from 6.97563e-08 +++++++++++++++++++++++++++++to 6.9854e-08
Heightened Def Con from 6.9854e-08 +++++++++++++++++++++++++++++to 6.99516e-08
Heightened Def Con from 6.99516e-08 +++++++++++++++++++++++++++++to 7.01e-08
Heightened Def Con from 7.02e-08 +++++++++++++++++++++++++++++++++to 7.02e-08
Heightened Def Con from 7.02e-08 ++++++++++++++++++++++++++++++to 7.06883e-08
Heightened Def Con from 7.1e-08 ++++++++++++++++++++++++++++++to 7.10977e-08
Heightened Def Con from 7.10977e-08 ++++++++++++++++++++++++++++++to 7.1586e-08
Heightened Def Con from 7.1586e-08 +++++++++++++++++++++++++++++to 7.17813e-08
Heightened Def Con from 7.31e-08 ++++++++++++++++++++++++++++++to 7.31977e-08
Heightened Def Con from 7.31977e-08 ++++++++++++++++++++++++++++++to 7.3686e-08
Heightened Def Con from 7.6e-08 +++++++++++++++++++++++++++++++to 7.65859e-08
Heightened Def Con from 7.81e-08 ++++++++++++++++++++++++++++++to 7.81977e-08
Heightened Def Con from 7.81977e-08 ++++++++++++++++++++++++++++++to 7.8686e-08
Heightened Def Con from 8.01e-08 ++++++++++++++++++++++++++++to 8.01001e-08
Heightened Def Con from 8.01001e-08 ++++++++++++++++++++++++++++to 8.01003e-08
Heightened Def Con from 8.01003e-08 ++++++++++++++++++++++++++++to 8.01005e-08
Heightened Def Con from 8.01005e-08 ++++++++++++++++++++++++++++to 8.01007e-08
Heightened Def Con from 8.01007e-08 ++++++++++++++++++++++++++++to 8.01008e-08
Heightened Def Con from 8.01008e-08 ++++++++++++++++++++++++++++to 8.0101e-08
Heightened Def Con from 8.0101e-08 ++++++++++++++++++++++++++++to 8.01012e-08
Heightened Def Con from 8.01012e-08 ++++++++++++++++++++++++++++to 8.01014e-08
Heightened Def Con from 8.01014e-08 ++++++++++++++++++++++++++++to 8.01016e-08
Heightened Def Con from 8.01016e-08 ++++++++++++++++++++++++++++to 8.01018e-08
Heightened Def Con from 8.01018e-08 ++++++++++++++++++++++++++++to 8.0102e-08
Heightened Def Con from 8.0102e-08 ++++++++++++++++++++++++++++to 8.01022e-08
Heightened Def Con from 8.01022e-08 ++++++++++++++++++++++++++++to 8.01024e-08
Heightened Def Con from 8.01024e-08 ++++++++++++++++++++++++++++to 8.01026e-08
Heightened Def Con from 8.01026e-08 ++++++++++++++++++++++++++++to 8.01027e-08
Heightened Def Con from 8.01027e-08 ++++++++++++++++++++++++++++to 8.01029e-08
Heightened Def Con from 8.01029e-08 ++++++++++++++++++++++++++++to 8.01031e-08
Heightened Def Con from 8.01031e-08 ++++++++++++++++++++++++++++to 8.01033e-08
Heightened Def Con from 8.01033e-08 ++++++++++++++++++++++++++++to 8.01035e-08
Heightened Def Con from 8.01035e-08 ++++++++++++++++++++++++++++to 8.01037e-08
Heightened Def Con from 8.01037e-08 ++++++++++++++++++++++++++++to 8.01039e-08
Heightened Def Con from 8.01039e-08 ++++++++++++++++++++++++++++to 8.01041e-08
Heightened Def Con from 8.01041e-08 ++++++++++++++++++++++++++++to 8.01043e-08
Heightened Def Con from 8.01043e-08 ++++++++++++++++++++++++++++to 8.01045e-08
Heightened Def Con from 8.01045e-08 ++++++++++++++++++++++++++++to 8.01047e-08
Heightened Def Con from 8.01047e-08 ++++++++++++++++++++++++++++to 8.01048e-08
Heightened Def Con from 8.01048e-08 ++++++++++++++++++++++++++++to 8.0105e-08
Heightened Def Con from 8.0105e-08 ++++++++++++++++++++++++++++to 8.01052e-08
Heightened Def Con from 8.01052e-08 ++++++++++++++++++++++++++++to 8.01054e-08
Heightened Def Con from 8.01054e-08 ++++++++++++++++++++++++++++to 8.01056e-08
Heightened Def Con from 8.01056e-08 ++++++++++++++++++++++++++++to 8.01058e-08
Heightened Def Con from 8.01058e-08 ++++++++++++++++++++++++++++to 8.0106e-08
Heightened Def Con from 8.0106e-08 ++++++++++++++++++++++++++++to 8.01062e-08
Heightened Def Con from 8.01062e-08 ++++++++++++++++++++++++++++to 8.01064e-08
Heightened Def Con from 8.01064e-08 ++++++++++++++++++++++++++++to 8.01066e-08
Heightened Def Con from 8.01066e-08 ++++++++++++++++++++++++++++to 8.01068e-08
Heightened Def Con from 8.01068e-08 ++++++++++++++++++++++++++++to 8.01069e-08
Heightened Def Con from 8.01069e-08 ++++++++++++++++++++++++++++to 8.01071e-08
Heightened Def Con from 8.01071e-08 ++++++++++++++++++++++++++++to 8.01073e-08
Heightened Def Con from 8.01073e-08 ++++++++++++++++++++++++++++to 8.01075e-08
Heightened Def Con from 8.01075e-08 ++++++++++++++++++++++++++++to 8.01077e-08
Heightened Def Con from 8.01077e-08 ++++++++++++++++++++++++++++to 8.01079e-08
Heightened Def Con from 8.01079e-08 ++++++++++++++++++++++++++++to 8.01081e-08
Heightened Def Con from 8.01081e-08 ++++++++++++++++++++++++++++to 8.01083e-08
Heightened Def Con from 8.01083e-08 ++++++++++++++++++++++++++++to 8.01085e-08
Heightened Def Con from 8.01085e-08 ++++++++++++++++++++++++++++to 8.01087e-08
Heightened Def Con from 8.01087e-08 ++++++++++++++++++++++++++++to 8.01089e-08
Heightened Def Con from 8.01089e-08 ++++++++++++++++++++++++++++to 8.0109e-08
Heightened Def Con from 8.0109e-08 ++++++++++++++++++++++++++++to 8.01092e-08
Heightened Def Con from 8.01092e-08 ++++++++++++++++++++++++++++to 8.01094e-08
Heightened Def Con from 8.01094e-08 ++++++++++++++++++++++++++++to 8.01096e-08
Heightened Def Con from 8.01096e-08 ++++++++++++++++++++++++++++to 8.01098e-08
Heightened Def Con from 8.01098e-08 ++++++++++++++++++++++++++++to 8.011e-08
Heightened Def Con from 8.011e-08 ++++++++++++++++++++++++++++to 8.01102e-08
Heightened Def Con from 8.01102e-08 ++++++++++++++++++++++++++++to 8.01104e-08
Heightened Def Con from 8.01104e-08 ++++++++++++++++++++++++++++to 8.01106e-08
Heightened Def Con from 8.01106e-08 ++++++++++++++++++++++++++++to 8.01108e-08
Heightened Def Con from 8.01108e-08 ++++++++++++++++++++++++++++to 8.0111e-08
Heightened Def Con from 8.0111e-08 ++++++++++++++++++++++++++++to 8.01111e-08
Heightened Def Con from 8.01111e-08 ++++++++++++++++++++++++++++to 8.01113e-08
Heightened Def Con from 8.01113e-08 ++++++++++++++++++++++++++++to 8.01115e-08
Heightened Def Con from 8.01115e-08 ++++++++++++++++++++++++++++to 8.01117e-08
Heightened Def Con from 8.01117e-08 ++++++++++++++++++++++++++++to 8.01119e-08
Heightened Def Con from 8.01119e-08 ++++++++++++++++++++++++++++to 8.01121e-08
Heightened Def Con from 8.01121e-08 ++++++++++++++++++++++++++++to 8.01123e-08
Heightened Def Con from 8.01123e-08 ++++++++++++++++++++++++++++to 8.01125e-08
Heightened Def Con from 8.01125e-08 ++++++++++++++++++++++++++++to 8.01127e-08
Heightened Def Con from 8.01127e-08 ++++++++++++++++++++++++++++to 8.01129e-08
Heightened Def Con from 8.01129e-08 ++++++++++++++++++++++++++++to 8.0113e-08
Heightened Def Con from 8.0113e-08 ++++++++++++++++++++++++++++to 8.01131e-08
Heightened Def Con from 8.01131e-08 ++++++++++++++++++++++++++++to 8.01131e-08
Heightened Def Con from 8.01131e-08 ++++++++++++++++++++++++++++to 8.01131e-08
Heightened Def Con from 8.01131e-08 ++++++++++++++++++++++++++++to 8.01131e-08
Heightened Def Con from 8.01131e-08 ++++++++++++++++++++++++++++to 8.01131e-08
Heightened Def Con from 8.01131e-08 ++++++++++++++++++++++++++++to 8.01131e-08
Heightened Def Con from 8.01131e-08 ++++++++++++++++++++++++++++to 8.01131e-08
Heightened Def Con from 8.01131e-08 ++++++++++++++++++++++++++++to 8.01131e-08
Heightened Def Con from 8.01131e-08 ++++++++++++++++++++++++++++to 8.01131e-08
Heightened Def Con from 8.01131e-08 ++++++++++++++++++++++++++++to 8.01131e-08
Heightened Def Con from 8.01131e-08 ++++++++++++++++++++++++++++to 8.01131e-08
Heightened Def Con from 8.01131e-08 ++++++++++++++++++++++++++++to 8.01131e-08
Heightened Def Con from 8.01131e-08 ++++++++++++++++++++++++++++to 8.01131e-08
Heightened Def Con from 8.01131e-08 +++++++++++++++++++++++++++++++to 8.06014e-08
Heightened Def Con from 8.06014e-08 +++++++++++++++++++++++++++++to 8.07967e-08
Heightened Def Con from 8.07967e-08 +++++++++++++++++++++++++++++to 8.08943e-08
Heightened Def Con from 8.08943e-08 +++++++++++++++++++++++++++++to 8.09935e-08
Heightened Def Con from 8.09935e-08 +++++++++++++++++++++++++++++to 8.09937e-08
Heightened Def Con from 8.09937e-08 +++++++++++++++++++++++++++++to 8.09939e-08
Heightened Def Con from 8.09939e-08 +++++++++++++++++++++++++++++to 8.09941e-08
Heightened Def Con from 8.09941e-08 +++++++++++++++++++++++++++++to 8.09943e-08
Heightened Def Con from 8.09943e-08 +++++++++++++++++++++++++++++to 8.09945e-08
Heightened Def Con from 8.09945e-08 +++++++++++++++++++++++++++++to 8.09947e-08
Heightened Def Con from 8.09947e-08 +++++++++++++++++++++++++++++to 8.09949e-08
Heightened Def Con from 8.09949e-08 +++++++++++++++++++++++++++++to 8.09951e-08
Heightened Def Con from 8.09951e-08 +++++++++++++++++++++++++++++to 8.09952e-08
Heightened Def Con from 8.09952e-08 +++++++++++++++++++++++++++++to 8.09954e-08
Heightened Def Con from 8.09954e-08 +++++++++++++++++++++++++++++to 8.09956e-08
Heightened Def Con from 8.09956e-08 +++++++++++++++++++++++++++++to 8.09958e-08
Heightened Def Con from 8.09958e-08 +++++++++++++++++++++++++++++to 8.0996e-08
Heightened Def Con from 8.0996e-08 ++++++++++++++++++++++++++++++to 8.10937e-08
Heightened Def Con from 8.10937e-08 ++++++++++++++++++++++++++++++to 8.1582e-08
Heightened Def Con from 8.1582e-08 +++++++++++++++++++++++++++++to 8.17773e-08
Heightened Def Con from 8.17773e-08 +++++++++++++++++++++++++++++to 8.19726e-08
Heightened Def Con from 8.19726e-08 +++++++++++++++++++++++++++++to 8.20703e-08
Heightened Def Con from 8.20703e-08 +++++++++++++++++++++++++++++to 8.21679e-08
Heightened Def Con from 8.21679e-08 +++++++++++++++++++++++++++++to 8.22656e-08
Heightened Def Con from 8.22656e-08 +++++++++++++++++++++++++++++to 8.23632e-08
Heightened Def Con from 8.23632e-08 +++++++++++++++++++++++++++++to 8.24609e-08
Heightened Def Con from 8.24609e-08 +++++++++++++++++++++++++++++to 8.25585e-08
Heightened Def Con from 8.25585e-08 +++++++++++++++++++++++++++++to 8.26562e-08
Heightened Def Con from 8.26562e-08 +++++++++++++++++++++++++++++to 8.27538e-08
Heightened Def Con from 8.27538e-08 +++++++++++++++++++++++++++++to 8.28515e-08
Heightened Def Con from 8.28515e-08 +++++++++++++++++++++++++++++to 8.29492e-08
Heightened Def Con from 8.29492e-08 +++++++++++++++++++++++++++++to 8.3059e-08
Heightened Def Con from 8.3059e-08 +++++++++++++++++++++++++++++to 8.30712e-08
Heightened Def Con from 8.30712e-08 +++++++++++++++++++++++++++++to 8.30834e-08
Heightened Def Con from 8.30834e-08 +++++++++++++++++++++++++++++to 8.30972e-08
Heightened Def Con from 8.30972e-08 +++++++++++++++++++++++++++++to 8.30989e-08
Heightened Def Con from 8.30989e-08 +++++++++++++++++++++++++++++to 8.30989e-08
Heightened Def Con from 8.30989e-08 +++++++++++++++++++++++++++++to 8.30989e-08
Heightened Def Con from 8.30989e-08 +++++++++++++++++++++++++++++++to 8.36848e-08
Heightened Def Con from 8.36848e-08 +++++++++++++++++++++++++++++to 8.37825e-08
Heightened Def Con from 8.37825e-08 +++++++++++++++++++++++++++++to 8.38801e-08
Heightened Def Con from 8.38801e-08 +++++++++++++++++++++++++++++to 8.39778e-08
Heightened Def Con from 8.39778e-08 +++++++++++++++++++++++++++++to 8.40754e-08
Heightened Def Con from 8.40754e-08 +++++++++++++++++++++++++++++to 8.41731e-08
Heightened Def Con from 8.41731e-08 +++++++++++++++++++++++++++++to 8.42708e-08
Heightened Def Con from 8.42708e-08 +++++++++++++++++++++++++++++to 8.43684e-08
Heightened Def Con from 8.43684e-08 +++++++++++++++++++++++++++++to 8.44661e-08
Heightened Def Con from 8.44661e-08 +++++++++++++++++++++++++++++to 8.45637e-08
Heightened Def Con from 8.45637e-08 +++++++++++++++++++++++++++++to 8.46614e-08
Heightened Def Con from 8.46614e-08 +++++++++++++++++++++++++++++to 8.4759e-08
Heightened Def Con from 8.4759e-08 +++++++++++++++++++++++++++++to 8.48567e-08
Heightened Def Con from 8.48567e-08 +++++++++++++++++++++++++++++to 8.49544e-08
Heightened Def Con from 8.49544e-08 +++++++++++++++++++++++++++++to 8.5052e-08
Heightened Def Con from 8.5052e-08 +++++++++++++++++++++++++++++to 8.51497e-08
Heightened Def Con from 8.51497e-08 +++++++++++++++++++++++++++++to 8.52473e-08
Heightened Def Con from 8.52473e-08 +++++++++++++++++++++++++++++to 8.5345e-08
Heightened Def Con from 8.5345e-08 +++++++++++++++++++++++++++++to 8.54426e-08
Heightened Def Con from 8.54426e-08 +++++++++++++++++++++++++++++to 8.55403e-08
Heightened Def Con from 8.55403e-08 +++++++++++++++++++++++++++++to 8.56379e-08
Heightened Def Con from 8.56379e-08 +++++++++++++++++++++++++++++to 8.57356e-08
Heightened Def Con from 8.57356e-08 +++++++++++++++++++++++++++++to 8.58333e-08
Heightened Def Con from 8.58333e-08 +++++++++++++++++++++++++++++to 8.59431e-08
Heightened Def Con from 8.59431e-08 +++++++++++++++++++++++++++++to 8.59553e-08
Heightened Def Con from 8.59553e-08 +++++++++++++++++++++++++++++to 8.59675e-08
Heightened Def Con from 8.59675e-08 +++++++++++++++++++++++++++++to 8.59797e-08
Heightened Def Con from 8.59797e-08 +++++++++++++++++++++++++++++to 8.59935e-08
Heightened Def Con from 8.59935e-08 ++++++++++++++++++++++++++++++to 8.65794e-08
Heightened Def Con from 8.65794e-08 +++++++++++++++++++++++++++++to 8.67747e-08
Heightened Def Con from 8.67747e-08 +++++++++++++++++++++++++++++to 8.697e-08
Heightened Def Con from 8.697e-08 +++++++++++++++++++++++++++++to 8.70677e-08
Heightened Def Con from 8.70677e-08 +++++++++++++++++++++++++++++to 8.71654e-08
Heightened Def Con from 8.71654e-08 +++++++++++++++++++++++++++++to 8.7263e-08
Heightened Def Con from 8.7263e-08 +++++++++++++++++++++++++++++to 8.73607e-08
Heightened Def Con from 8.73607e-08 +++++++++++++++++++++++++++++to 8.74583e-08
Heightened Def Con from 8.74583e-08 +++++++++++++++++++++++++++++to 8.7556e-08
Heightened Def Con from 8.7556e-08 +++++++++++++++++++++++++++++to 8.76536e-08
Heightened Def Con from 8.76536e-08 +++++++++++++++++++++++++++++to 8.77513e-08
Heightened Def Con from 8.77513e-08 +++++++++++++++++++++++++++++to 8.78489e-08
Heightened Def Con from 8.78489e-08 +++++++++++++++++++++++++++++to 8.79466e-08
Heightened Def Con from 8.79466e-08 +++++++++++++++++++++++++++++to 8.80565e-08
Heightened Def Con from 8.80565e-08 +++++++++++++++++++++++++++++to 8.80687e-08
Heightened Def Con from 8.80687e-08 +++++++++++++++++++++++++++++to 8.80809e-08
Heightened Def Con from 8.80809e-08 +++++++++++++++++++++++++++++to 8.80946e-08
Heightened Def Con from 8.80946e-08 +++++++++++++++++++++++++++++to 8.80961e-08
Heightened Def Con from 8.80961e-08 +++++++++++++++++++++++++++++++to 8.86821e-08
Heightened Def Con from 8.86821e-08 +++++++++++++++++++++++++++++to 8.87797e-08
Heightened Def Con from 8.87797e-08 +++++++++++++++++++++++++++++to 8.88774e-08
Heightened Def Con from 8.88774e-08 +++++++++++++++++++++++++++++to 8.8975e-08
Heightened Def Con from 8.8975e-08 +++++++++++++++++++++++++++++to 8.90727e-08
Heightened Def Con from 8.90727e-08 +++++++++++++++++++++++++++++to 8.91704e-08
Heightened Def Con from 8.91704e-08 +++++++++++++++++++++++++++++to 8.9268e-08
Heightened Def Con from 8.9268e-08 +++++++++++++++++++++++++++++to 8.93657e-08
Heightened Def Con from 8.93657e-08 +++++++++++++++++++++++++++++to 8.94633e-08
Heightened Def Con from 8.94633e-08 +++++++++++++++++++++++++++++to 8.9561e-08
Heightened Def Con from 8.9561e-08 +++++++++++++++++++++++++++++to 8.96586e-08
Heightened Def Con from 8.96586e-08 +++++++++++++++++++++++++++++to 8.97563e-08
Heightened Def Con from 8.97563e-08 +++++++++++++++++++++++++++++to 8.9854e-08
Heightened Def Con from 8.9854e-08 +++++++++++++++++++++++++++++to 8.99516e-08
Heightened Def Con from 8.99516e-08 +++++++++++++++++++++++++++++to 9.01e-08
Heightened Def Con from 9.02e-08 +++++++++++++++++++++++++++++++++to 9.02e-08
Heightened Def Con from 9.02e-08 ++++++++++++++++++++++++++++++to 9.06883e-08
Heightened Def Con from 9.1e-08 ++++++++++++++++++++++++++++++to 9.10977e-08
Heightened Def Con from 9.10977e-08 ++++++++++++++++++++++++++++++to 9.1586e-08
Heightened Def Con from 9.1586e-08 +++++++++++++++++++++++++++++to 9.17813e-08
Heightened Def Con from 9.31e-08 ++++++++++++++++++++++++++++++to 9.31977e-08
Heightened Def Con from 9.31977e-08 ++++++++++++++++++++++++++++++to 9.3686e-08
Heightened Def Con from 9.6e-08 +++++++++++++++++++++++++++++++to 9.65859e-08
Heightened Def Con from 9.81e-08 ++++++++++++++++++++++++++++++to 9.81977e-08
Heightened Def Con from 9.81977e-08 ++++++++++++++++++++++++++++++to 9.8686e-08

Date: Mon Oct 23 10:36:39 2023
Total elapsed time: 67.887 seconds.

tnom = 27
temp = 27
method = modified trap
totiter = 3636567
traniter = 3636524
tranpoints = 331918
accept = 32293
rejected = 329566
matrix size = 40
fillins = 20
solver = Normal
Avg thread counts: 2.0/1.7/1.1/1.0
Matrix Compiler1: 5.12 KB object code size  3.0/2.3/[0.9]
Matrix Compiler2: 4.88 KB object code size  1.9/1.6/[0.6]

