Circuit: * D:\Downloads\VLSI\My stuff\RingOscillatoe\RingOscillator.asc

