Circuit: * D:\Downloads\VLSI\RingOscillatoe\RingOscillator (2).asc

Direct Newton iteration for .op point succeeded.

in_delay=1e-08 FROM 0 TO 1e-08
out_delay=1e-08 FROM 0 TO 1e-08


Date: Tue Aug  1 17:20:40 2023
Total elapsed time: 0.164 seconds.

tnom = 27
temp = 27
method = modified trap
totiter = 2405
traniter = 2389
tranpoints = 1195
accept = 1168
rejected = 27
matrix size = 15
fillins = 0
solver = Normal
Avg thread counts: 1.3/1.5/1.5/1.3
Matrix Compiler1:      48 opcodes  0.6/[0.4]/0.4
Matrix Compiler2: 1.38 KB object code size  0.5/0.5/[0.3]

