Circuit: * D:\Downloads\VLSI\Sirs Example\exp4_VcoSimulation.asc

Model "testn": Oxide thickness thinner than recommended for a level 1 MOSFET.
Instance "m1": Length shorter than recommended for a level 1 MOSFET.
Instance "m3": Length shorter than recommended for a level 1 MOSFET.
Instance "m5": Length shorter than recommended for a level 1 MOSFET.
Instance "m7": Length shorter than recommended for a level 1 MOSFET.
Instance "m9": Length shorter than recommended for a level 1 MOSFET.
Instance "m11": Length shorter than recommended for a level 1 MOSFET.
Instance "m13": Length shorter than recommended for a level 1 MOSFET.
Instance "m15": Length shorter than recommended for a level 1 MOSFET.
Model "testp": Oxide thickness thinner than recommended for a level 1 MOSFET.
Instance "m2": Length shorter than recommended for a level 1 MOSFET.
Instance "m4": Length shorter than recommended for a level 1 MOSFET.
Instance "m6": Length shorter than recommended for a level 1 MOSFET.
Instance "m8": Length shorter than recommended for a level 1 MOSFET.
Instance "m10": Length shorter than recommended for a level 1 MOSFET.
Direct Newton iteration for .op point succeeded.

Date: Wed Oct 18 20:10:34 2023
Total elapsed time: 0.212 seconds.

tnom = 27
temp = 27
method = modified trap
totiter = 7367
traniter = 7325
tranpoints = 2925
accept = 2451
rejected = 474
matrix size = 12
fillins = 0
solver = Normal
Avg thread counts: 1.4/1.9/1.9/1.4
Matrix Compiler1: 662 bytes object code size  0.5/0.4/[0.3]
Matrix Compiler2: 1.05 KB object code size  0.4/0.6/[0.2]

