Circuit: * D:\Downloads\VLSI\Sirs Example\RingOscillator1.asc

Direct Newton iteration for .op point succeeded.
Heightened Def Con from 5e-12 ++++++to 5e-12
Heightened Def Con from 1.00005e-07 +++++++++++++++++to 1.00005e-07
Heightened Def Con from 1.00005e-07 +++++++++++++++to 1.00005e-07
Heightened Def Con from 2.00005e-07 to 2.00005e-07
Heightened Def Con from 3.00005e-07 +++++++to 3.00005e-07
Heightened Def Con from 4.00005e-07 +++++++to 4.00005e-07
Heightened Def Con from 5.00005e-07 ++++++++to 5.00005e-07
Heightened Def Con from 5.02015e-07 +++++++++to 5.02015e-07
Heightened Def Con from 6.00005e-07 ++++++++to 6.00005e-07
Heightened Def Con from 6.02015e-07 +++++++++to 6.02015e-07
Heightened Def Con from 7.00005e-07 ++++++++to 7.00005e-07
Heightened Def Con from 7.02015e-07 +++++++++to 7.02015e-07
Heightened Def Con from 8.00005e-07 ++++++++to 8.00005e-07
Heightened Def Con from 8.02015e-07 +++++++++to 8.02015e-07
Heightened Def Con from 9.00005e-07 ++++++++to 9.00005e-07
Heightened Def Con from 9.02015e-07 +++++++++to 9.02015e-07

Date: Wed Oct 18 20:08:43 2023
Total elapsed time: 0.318 seconds.

tnom = 27
temp = 27
method = modified trap
totiter = 25048
traniter = 25003
tranpoints = 4354
accept = 2647
rejected = 1860
matrix size = 12
fillins = 0
solver = Normal
Avg thread counts: 1.1/1.9/2.0/1.1
Matrix Compiler1: 662 bytes object code size  0.6/0.3/[0.2]
Matrix Compiler2: 1.05 KB object code size  0.3/0.6/[0.2]

