Circuit: * D:\Downloads\VLSI\Sirs Example\RingOscillator.asc

